@<TRIPOS>MOLECULE
*****
  161   175     1     0     0
SMALL
dc


@<TRIPOS>ATOM
      1 N           -1.7290     3.2260    -0.1820 na         1 UNL       0.000000
      2 C           -3.0600     2.8170    -0.0670 ca         1 UNL       0.000000
      3 C1          -3.0920     1.4220     0.0170 cp         1 UNL       0.000000
      4 C2          -1.5780     0.9540     0.0240 cp         1 UNL       0.000000
      5 C3          -0.8070     2.1170    -0.0380 ca         1 UNL       0.000000
      6 C4          -4.3110     3.6710    -0.0230 ca         1 UNL       0.000000
      7 C5          -4.5270     0.9380     0.0510 ca         1 UNL       0.000000
      8 C6          -5.7730     1.8490     0.0300 ca         1 UNL       0.000000
      9 C7          -5.6540     3.2670     0.0190 ca         1 UNL       0.000000
     10 C8          -0.6900    -0.2670     0.0590 ca         1 UNL       0.000000
     11 C9           0.7710     2.0460     0.0350 ca         1 UNL       0.000000
     12 C10          0.8590    -0.2940     0.0440 ca         1 UNL       0.000000
     13 C11          1.6820     0.8930     0.0530 ca         1 UNL       0.000000
     14 C12         -7.1570     1.4160     0.0160 ca         1 UNL       0.000000
     15 C13         -6.8740     4.2260     0.0300 ca         1 UNL       0.000000
     16 C14         -8.1950     3.7470     0.0150 ca         1 UNL       0.000000
     17 C15         -8.3120     2.3200    -0.0000 ca         1 UNL       0.000000
     18 C16         -9.3060     4.7900     0.0030 cc         1 UNL       0.000000
     19 S           -7.1390     5.9870     0.0330 ss         1 UNL       0.000000
     20 C17         -8.9080     6.1980     0.0140 cd         1 UNL       0.000000
     21 C18         -9.7850     7.6620     0.0070 ca         1 UNL       0.000000
     22 C19        -11.2250     8.0310     0.0030 ca         1 UNL       0.000000
     23 C20        -11.7680     9.4410     0.0000 ca         1 UNL       0.000000
     24 C21        -10.9760    10.6570     0.0010 ca         1 UNL       0.000000
     25 C22         -9.6000    10.2450     0.0020 ca         1 UNL       0.000000
     26 C23         -9.0960     8.8930     0.0050 ca         1 UNL       0.000000
     27 F          -12.1620     7.0510     0.0020 f          1 UNL       0.000000
     28 F1         -13.1170     9.6180    -0.0020 f          1 UNL       0.000000
     29 N1          -8.5180    11.0180     0.0000 nc         1 UNL       0.000000
     30 N2          -7.7750     8.9570     0.0040 nc         1 UNL       0.000000
     31 N3          -7.4610    10.2310     0.0010 na         1 UNL       0.000000
     32 C24         -6.0820    10.6530     0.0000 c3         1 UNL       0.000000
     33 C25        -11.6730    12.1560    -0.0000 ce         1 UNL       0.000000
     34 C26        -11.2120    13.5180    -0.0000 cd         1 UNL       0.000000
     35 C27         -9.7880    13.9470    -0.0000 c          1 UNL       0.000000
     36 O           -8.8320    13.2290    -0.0010 o          1 UNL       0.000000
     37 C28        -11.9620    14.9300    -0.0000 cd         1 UNL       0.000000
     38 C29        -10.8790    15.9980     0.0000 ca         1 UNL       0.000000
     39 C30         -9.6400    15.4080    -0.0000 ca         1 UNL       0.000000
     40 C31        -13.2890    15.3460     0.0000 ce         1 UNL       0.000000
     41 C32        -13.6890    16.7510     0.0010 cg         1 UNL       0.000000
     42 C33        -14.4740    14.5440     0.0000 cg         1 UNL       0.000000
     43 N4         -15.5050    14.0190     0.0000 n1         1 UNL       0.000000
     44 N5         -14.0030    17.8720     0.0010 n1         1 UNL       0.000000
     45 C34        -10.9440    17.4300     0.0000 ca         1 UNL       0.000000
     46 C35         -8.4590    16.1930    -0.0000 ca         1 UNL       0.000000
     47 C36         -9.8070    18.2160    -0.0000 ca         1 UNL       0.000000
     48 C37         -8.5560    17.6070    -0.0010 ca         1 UNL       0.000000
     49 F2          -9.9420    19.5790     0.0000 f          1 UNL       0.000000
     50 F3          -7.4510    18.4010    -0.0010 f          1 UNL       0.000000
     51 C38         -1.3710     4.6430    -0.5240 c3         1 UNL       0.000000
     52 C39         -2.2830     5.6890     0.1720 c3         1 UNL       0.000000
     53 C40         -1.6580     7.0270     0.0960 c3         1 UNL       0.000000
     54 C41         -2.4740     8.2870     0.1290 c3         1 UNL       0.000000
     55 C42         -1.3760     9.3500     0.0420 c3         1 UNL       0.000000
     56 C43         -1.9260    10.7360     0.0080 c3         1 UNL       0.000000
     57 C44         -0.7600    11.7200    -0.0120 c3         1 UNL       0.000000
     58 C45         -1.3190    13.1320    -0.0070 c3         1 UNL       0.000000
     59 C46         -0.2070    14.1670    -0.0050 c3         1 UNL       0.000000
     60 C47          0.0150     4.7780     0.0150 c3         1 UNL       0.000000
     61 C48          1.0100     5.9050    -0.0340 c3         1 UNL       0.000000
     62 C49          2.3660     5.2370     0.0680 c3         1 UNL       0.000000
     63 C50          3.4410     6.2600     0.0320 c3         1 UNL       0.000000
     64 C51          4.7610     5.5310     0.0080 c3         1 UNL       0.000000
     65 C52          5.8600     6.5610     0.0030 c3         1 UNL       0.000000
     66 C53          7.1960     5.8580    -0.0090 c3         1 UNL       0.000000
     67 C54          8.3210     6.8690    -0.0020 c3         1 UNL       0.000000
     68 C55          3.3070     0.7970     0.0580 ca         1 UNL       0.000000
     69 C56          3.9330    -0.4840     0.0240 ca         1 UNL       0.000000
     70 C57          3.0710    -1.6030    -0.0020 ca         1 UNL       0.000000
     71 C58          1.6250    -1.5160     0.0160 ca         1 UNL       0.000000
     72 S1           4.8220     1.8450     0.0660 ss         1 UNL       0.000000
     73 C59          6.2300     0.6700     0.0280 cd         1 UNL       0.000000
     74 C60          5.4600    -0.5610     0.0070 cc         1 UNL       0.000000
     75 C61          7.9920     0.7850     0.0150 ca         1 UNL       0.000000
     76 C62          9.0100    -0.3050     0.0070 ca         1 UNL       0.000000
     77 C63         10.4780    -0.1780     0.0020 ca         1 UNL       0.000000
     78 C64         11.2590     1.0110     0.0020 ca         1 UNL       0.000000
     79 C65          8.8190     2.0110     0.0100 ca         1 UNL       0.000000
     80 C66         10.3220     2.1100     0.0040 ca         1 UNL       0.000000
     81 F4           8.1840     3.1880     0.0090 f          1 UNL       0.000000
     82 F5          10.8830     3.3480    -0.0000 f          1 UNL       0.000000
     83 N6           8.7810    -1.6350     0.0060 nc         1 UNL       0.000000
     84 N7          10.9960    -1.4020    -0.0010 nc         1 UNL       0.000000
     85 N8           9.9760    -2.2410     0.0010 na         1 UNL       0.000000
     86 C67         10.1880    -3.6820    -0.0000 c3         1 UNL       0.000000
     87 C68         12.9050     1.2600    -0.0000 ce         1 UNL       0.000000
     88 C69         14.1770     0.5490    -0.0010 cd         1 UNL       0.000000
     89 C70         14.4210    -0.9330    -0.0000 c          1 UNL       0.000000
     90 O1          13.5530    -1.7830     0.0000 o          1 UNL       0.000000
     91 C71         15.6770     1.0990    -0.0020 cd         1 UNL       0.000000
     92 C72         16.6170    -0.0900    -0.0000 ca         1 UNL       0.000000
     93 C73         15.8880    -1.2560    -0.0000 ca         1 UNL       0.000000
     94 C74         18.0530    -0.1680    -0.0000 ca         1 UNL       0.000000
     95 C75         16.5650    -2.5110     0.0000 ca         1 UNL       0.000000
     96 C76         17.9850    -2.5570     0.0000 ca         1 UNL       0.000000
     97 C77         18.7190    -1.3790     0.0000 ca         1 UNL       0.000000
     98 F6          18.6620    -3.7370     0.0000 f          1 UNL       0.000000
     99 F7          20.0880    -1.3930     0.0000 f          1 UNL       0.000000
    100 C78         16.2210     2.3540     0.0010 ce         1 UNL       0.000000
    101 C79         15.4510     3.5730     0.0000 cg         1 UNL       0.000000
    102 C80         17.6480     2.6840     0.0010 cg         1 UNL       0.000000
    103 N9          14.9510     4.6170    -0.0000 n1         1 UNL       0.000000
    104 N10         18.8100     2.7690    -0.0000 n1         1 UNL       0.000000
    105 H           -4.3930     4.6940     0.0120 ha         1 UNL       0.000000
    106 H1          -4.7010    -0.1320     0.0850 ha         1 UNL       0.000000
    107 H2          -1.1860    -1.2310     0.0790 ha         1 UNL       0.000000
    108 H3           1.4170     2.8680     0.1020 ha         1 UNL       0.000000
    109 H4          -7.3720     0.3530     0.0020 ha         1 UNL       0.000000
    110 H5          -9.3120     1.8890    -0.0270 ha         1 UNL       0.000000
    111 H6         -10.3580     4.5110    -0.0170 ha         1 UNL       0.000000
    112 H7          -5.4450     9.7380     0.0000 h1         1 UNL       0.000000
    113 H8          -5.8720    11.2350     0.9180 h1         1 UNL       0.000000
    114 H9          -5.8730    11.2340    -0.9180 h1         1 UNL       0.000000
    115 H10        -12.7670    12.1280    -0.0000 ha         1 UNL       0.000000
    116 H11        -11.7910    18.0590     0.0010 ha         1 UNL       0.000000
    117 H12         -7.4790    15.7360    -0.0010 ha         1 UNL       0.000000
    118 H13         -1.4120     4.8110    -1.6820 h1         1 UNL       0.000000
    119 H14         -2.5180     5.3850     1.2710 hc         1 UNL       0.000000
    120 H15         -3.1070     5.8970    -0.5360 hc         1 UNL       0.000000
    121 H16         -1.1620     7.0670    -0.9050 hc         1 UNL       0.000000
    122 H17         -1.0110     7.0460     0.9820 hc         1 UNL       0.000000
    123 H18         -3.0770     8.3820     1.0580 hc         1 UNL       0.000000
    124 H19         -3.1470     8.3370    -0.7600 hc         1 UNL       0.000000
    125 H20         -0.7590     9.1920    -0.8790 hc         1 UNL       0.000000
    126 H21         -0.7030     9.2460     0.9260 hc         1 UNL       0.000000
    127 H22         -2.5410    10.8880     0.9190 hc         1 UNL       0.000000
    128 H23         -2.5540    10.8520    -0.9020 hc         1 UNL       0.000000
    129 H24         -0.1290    11.5520    -0.9170 hc         1 UNL       0.000000
    130 H25         -0.1210    11.5620     0.8890 hc         1 UNL       0.000000
    131 H26         -1.9450    13.2680     0.9020 hc         1 UNL       0.000000
    132 H27         -1.9530    13.2720    -0.9100 hc         1 UNL       0.000000
    133 H28          0.4250    14.0490     0.9010 hc         1 UNL       0.000000
    134 H29         -0.6650    15.1770     0.0020 hc         1 UNL       0.000000
    135 H30          0.4220    14.0560    -0.9130 hc         1 UNL       0.000000
    136 H31          0.3970     4.1960    -0.8260 hc         1 UNL       0.000000
    137 H32         -0.0140     4.3890     1.0860 hc         1 UNL       0.000000
    138 H33          0.9300     6.6040     0.8250 hc         1 UNL       0.000000
    139 H34          0.9320     6.4260    -1.0100 hc         1 UNL       0.000000
    140 H35          2.5040     4.5680    -0.8160 hc         1 UNL       0.000000
    141 H36          2.4450     4.6390     1.0100 hc         1 UNL       0.000000
    142 H37          3.3560     6.9010     0.9360 hc         1 UNL       0.000000
    143 H38          3.3310     6.8770    -0.8870 hc         1 UNL       0.000000
    144 H39          4.8260     4.8920    -0.9050 hc         1 UNL       0.000000
    145 H40          4.8490     4.8750     0.9050 hc         1 UNL       0.000000
    146 H41          5.7710     7.1870     0.9180 hc         1 UNL       0.000000
    147 H42          5.7570     7.2030    -0.9000 hc         1 UNL       0.000000
    148 H43          7.2660     5.2320    -0.9260 hc         1 UNL       0.000000
    149 H44          7.2700     5.2210     0.9000 hc         1 UNL       0.000000
    150 H45          8.2460     7.5120    -0.9040 hc         1 UNL       0.000000
    151 H46          9.2890     6.3310    -0.0050 hc         1 UNL       0.000000
    152 H47          8.2470     7.4970     0.9110 hc         1 UNL       0.000000
    153 H48          3.5380    -2.5830    -0.0400 ha         1 UNL       0.000000
    154 H49          1.1000    -2.4620    -0.0090 ha         1 UNL       0.000000
    155 H50          5.9870    -1.5080    -0.0250 ha         1 UNL       0.000000
    156 H51          9.2190    -4.2170     0.0010 h1         1 UNL       0.000000
    157 H52         10.7750    -3.9720     0.8990 h1         1 UNL       0.000000
    158 H53         10.7740    -3.9710    -0.9010 h1         1 UNL       0.000000
    159 H54         13.1150     2.3240    -0.0000 ha         1 UNL       0.000000
    160 H55         18.7580     0.6170    -0.0000 ha         1 UNL       0.000000
    161 H56         16.0270    -3.4450     0.0000 ha         1 UNL       0.000000
@<TRIPOS>BOND
     1     2     1 1   
     2     2     3 ar  
     3     3     4 1   
     4     4     5 ar  
     5     5     1 1   
     6     2     6 ar  
     7     3     7 ar  
     8     7     8 ar  
     9     6     9 ar  
    10     9     8 ar  
    11     4    10 ar  
    12     5    11 ar  
    13    10    12 ar  
    14    11    13 ar  
    15    13    12 ar  
    16     8    14 ar  
    17     9    15 ar  
    18    15    16 ar  
    19    14    17 ar  
    20    16    17 ar  
    21    16    18 1   
    22    15    19 1   
    23    19    20 1   
    24    20    18 2   
    25    20    21 1   
    26    21    22 ar  
    27    22    23 ar  
    28    23    24 ar  
    29    24    25 ar  
    30    25    26 ar  
    31    26    21 ar  
    32    22    27 1   
    33    23    28 1   
    34    25    29 2   
    35    26    30 2   
    36    30    31 1   
    37    31    29 1   
    38    31    32 1   
    39    24    33 1   
    40    33    34 2   
    41    34    35 1   
    42    35    36 2   
    43    34    37 1   
    44    37    38 1   
    45    35    39 1   
    46    38    39 ar  
    47    37    40 2   
    48    40    41 1   
    49    40    42 1   
    50    42    43 3   
    51    41    44 3   
    52    38    45 ar  
    53    39    46 ar  
    54    45    47 ar  
    55    46    48 ar  
    56    47    48 ar  
    57    47    49 1   
    58    48    50 1   
    59     1    51 1   
    60    51    52 1   
    61    52    53 1   
    62    53    54 1   
    63    54    55 1   
    64    55    56 1   
    65    56    57 1   
    66    57    58 1   
    67    58    59 1   
    68    51    60 1   
    69    60    61 1   
    70    61    62 1   
    71    62    63 1   
    72    63    64 1   
    73    64    65 1   
    74    65    66 1   
    75    66    67 1   
    76    13    68 ar  
    77    68    69 ar  
    78    69    70 ar  
    79    12    71 ar  
    80    71    70 ar  
    81    68    72 1   
    82    72    73 1   
    83    69    74 1   
    84    74    73 2   
    85    73    75 1   
    86    75    76 ar  
    87    76    77 ar  
    88    77    78 ar  
    89    75    79 ar  
    90    78    80 ar  
    91    79    80 ar  
    92    79    81 1   
    93    80    82 1   
    94    76    83 2   
    95    77    84 2   
    96    83    85 1   
    97    85    84 1   
    98    85    86 1   
    99    78    87 1   
   100    87    88 2   
   101    88    89 1   
   102    89    90 2   
   103    88    91 1   
   104    91    92 1   
   105    89    93 1   
   106    93    92 ar  
   107    92    94 ar  
   108    93    95 ar  
   109    95    96 ar  
   110    94    97 ar  
   111    97    96 ar  
   112    96    98 1   
   113    97    99 1   
   114    91   100 2   
   115   100   101 1   
   116   100   102 1   
   117   101   103 3   
   118   102   104 3   
   119     6   105 1   
   120     7   106 1   
   121    10   107 1   
   122    11   108 1   
   123    14   109 1   
   124    17   110 1   
   125    18   111 1   
   126    32   112 1   
   127    32   113 1   
   128    32   114 1   
   129    33   115 1   
   130    45   116 1   
   131    46   117 1   
   132    51   118 1   
   133    52   119 1   
   134    52   120 1   
   135    53   121 1   
   136    53   122 1   
   137    54   123 1   
   138    54   124 1   
   139    55   125 1   
   140    55   126 1   
   141    56   127 1   
   142    56   128 1   
   143    57   129 1   
   144    57   130 1   
   145    58   131 1   
   146    58   132 1   
   147    59   133 1   
   148    59   134 1   
   149    59   135 1   
   150    60   136 1   
   151    60   137 1   
   152    61   138 1   
   153    61   139 1   
   154    62   140 1   
   155    62   141 1   
   156    63   142 1   
   157    63   143 1   
   158    64   144 1   
   159    64   145 1   
   160    65   146 1   
   161    65   147 1   
   162    66   148 1   
   163    66   149 1   
   164    67   150 1   
   165    67   151 1   
   166    67   152 1   
   167    70   153 1   
   168    71   154 1   
   169    74   155 1   
   170    86   156 1   
   171    86   157 1   
   172    86   158 1   
   173    87   159 1   
   174    94   160 1   
   175    95   161 1   
@<TRIPOS>SUBSTRUCTURE
     1 UNL         1 TEMP              0 ****  ****    0 ROOT
