@<TRIPOS>MOLECULE
*****
  161   175     1     0     0
SMALL
dc


@<TRIPOS>ATOM
      1 N           -1.6410     3.4010    -0.1430 na         1 UNL       0.000000
      2 C           -2.9850     3.0330    -0.0730 ca         1 UNL       0.000000
      3 C1          -3.0650     1.6440     0.0030 cp         1 UNL       0.000000
      4 C2          -1.5900     1.1260     0.0110 cp         1 UNL       0.000000
      5 C3          -0.7750     2.2600    -0.0410 ca         1 UNL       0.000000
      6 C4          -4.2080     3.9240    -0.0710 ca         1 UNL       0.000000
      7 C5          -4.4930     1.1920     0.0340 ca         1 UNL       0.000000
      8 C6          -5.7090     2.1370     0.0160 ca         1 UNL       0.000000
      9 C7          -5.5720     3.5640    -0.0220 ca         1 UNL       0.000000
     10 C8          -0.7870    -0.1340     0.0460 ca         1 UNL       0.000000
     11 C9           0.7760     2.1330    -0.0050 ca         1 UNL       0.000000
     12 C10          0.7380    -0.2200     0.0370 ca         1 UNL       0.000000
     13 C11          1.5920     0.9380     0.0220 ca         1 UNL       0.000000
     14 C12         -7.0830     1.7170     0.0390 ca         1 UNL       0.000000
     15 C13         -6.7940     4.5530    -0.0150 ca         1 UNL       0.000000
     16 C14         -8.1210     4.0700     0.0120 ca         1 UNL       0.000000
     17 C15         -8.2290     2.6310     0.0330 ca         1 UNL       0.000000
     18 C16         -9.2460     5.1230     0.0130 cc         1 UNL       0.000000
     19 S           -7.0820     6.3420    -0.0340 ss         1 UNL       0.000000
     20 C17         -8.8690     6.5570    -0.0070 cd         1 UNL       0.000000
     21 C18         -9.8120     8.0560    -0.0040 ca         1 UNL       0.000000
     22 C19        -11.2730     8.4060     0.0000 ca         1 UNL       0.000000
     23 C20        -11.9000     9.8160     0.0010 ca         1 UNL       0.000000
     24 C21        -11.1820    11.1040     0.0010 ca         1 UNL       0.000000
     25 C22         -9.7560    10.7020    -0.0010 ca         1 UNL       0.000000
     26 C23         -9.1910     9.3380    -0.0030 ca         1 UNL       0.000000
     27 N1          -8.6770    11.5250     0.0000 nc         1 UNL       0.000000
     28 N2          -7.8770     9.4480    -0.0030 nc         1 UNL       0.000000
     29 N3          -7.5950    10.7320    -0.0000 na         1 UNL       0.000000
     30 C24         -6.2010    11.1390     0.0010 c3         1 UNL       0.000000
     31 C25         -1.2200     4.8090    -0.4070 c3         1 UNL       0.000000
     32 C26         -2.1330     5.9120     0.1520 c3         1 UNL       0.000000
     33 C27         -1.4840     7.2290     0.1460 c3         1 UNL       0.000000
     34 C28         -2.3890     8.4310     0.1900 c3         1 UNL       0.000000
     35 C29         -1.3920     9.5690     0.0970 c3         1 UNL       0.000000
     36 C30         -2.0150    10.9280     0.0610 c3         1 UNL       0.000000
     37 C31         -0.8550    11.9160     0.0060 c3         1 UNL       0.000000
     38 C32         -1.3650    13.3380    -0.0070 c3         1 UNL       0.000000
     39 C33         -0.1900    14.3020    -0.0170 c3         1 UNL       0.000000
     40 C34          0.2250     4.9100    -0.0650 c3         1 UNL       0.000000
     41 C35          1.1940     6.0530    -0.1300 c3         1 UNL       0.000000
     42 C36          2.5450     5.3880     0.0160 c3         1 UNL       0.000000
     43 C37          3.6310     6.4010     0.0070 c3         1 UNL       0.000000
     44 C38          4.9360     5.6400     0.0350 c3         1 UNL       0.000000
     45 C39          6.0660     6.6310     0.0180 c3         1 UNL       0.000000
     46 C40          7.3890     5.8900     0.0030 c3         1 UNL       0.000000
     47 C41          8.5210     6.8960    -0.0030 c3         1 UNL       0.000000
     48 C42          3.1750     0.7940     0.0260 ca         1 UNL       0.000000
     49 C43          3.7640    -0.4950     0.0290 ca         1 UNL       0.000000
     50 C44          2.8820    -1.5980     0.0350 ca         1 UNL       0.000000
     51 C45          1.4460    -1.4680     0.0430 ca         1 UNL       0.000000
     52 S1           4.6760     1.8150     0.0160 ss         1 UNL       0.000000
     53 C46          6.0420     0.6260     0.0180 cd         1 UNL       0.000000
     54 C47          5.2690    -0.5950     0.0230 cc         1 UNL       0.000000
     55 C48          7.7580     0.7570     0.0140 ca         1 UNL       0.000000
     56 C49          8.7730    -0.3180     0.0100 ca         1 UNL       0.000000
     57 C50         10.2220    -0.1580     0.0070 ca         1 UNL       0.000000
     58 C51         10.9810     1.0510     0.0080 ca         1 UNL       0.000000
     59 C52          8.5280     2.0020     0.0140 ca         1 UNL       0.000000
     60 C53         10.0170     2.1390     0.0120 ca         1 UNL       0.000000
     61 N4           8.5630    -1.6530     0.0080 nc         1 UNL       0.000000
     62 N5          10.7710    -1.3770     0.0040 nc         1 UNL       0.000000
     63 N6           9.7670    -2.2390     0.0040 na         1 UNL       0.000000
     64 C54         10.0010    -3.6780     0.0010 c3         1 UNL       0.000000
     65 H           -4.2370     4.9490    -0.0830 ha         1 UNL       0.000000
     66 H1          -4.6730     0.1210     0.0730 ha         1 UNL       0.000000
     67 H2          -1.3240    -1.0750     0.0690 ha         1 UNL       0.000000
     68 H3           1.4790     2.9180     0.0150 ha         1 UNL       0.000000
     69 H4          -7.2870     0.6490     0.0610 ha         1 UNL       0.000000
     70 H5          -9.2160     2.1800     0.0500 ha         1 UNL       0.000000
     71 H6         -10.2870     4.8160     0.0310 ha         1 UNL       0.000000
     72 H7          -5.5660    10.2190     0.0010 h1         1 UNL       0.000000
     73 H8          -5.9640    11.7070     0.9200 h1         1 UNL       0.000000
     74 H9          -5.9630    11.7070    -0.9180 h1         1 UNL       0.000000
     75 H10         -1.2970     4.9710    -1.5130 h1         1 UNL       0.000000
     76 H11         -2.5410     5.7020     1.1690 hc         1 UNL       0.000000
     77 H12         -2.8660     6.1000    -0.6570 hc         1 UNL       0.000000
     78 H13         -0.9480     7.2930    -0.8280 hc         1 UNL       0.000000
     79 H14         -0.8480     7.2540     1.0460 hc         1 UNL       0.000000
     80 H15         -2.9810     8.4590     1.1300 hc         1 UNL       0.000000
     81 H16         -3.0800     8.4370    -0.6850 hc         1 UNL       0.000000
     82 H17         -0.7880     9.4550    -0.8370 hc         1 UNL       0.000000
     83 H18         -0.7070     9.5050     0.9750 hc         1 UNL       0.000000
     84 H19         -2.6230    11.0790     0.9780 hc         1 UNL       0.000000
     85 H20         -2.6610    11.0190    -0.8410 hc         1 UNL       0.000000
     86 H21         -0.2410    11.7270    -0.9060 hc         1 UNL       0.000000
     87 H22         -0.2050    11.7650     0.9000 hc         1 UNL       0.000000
     88 H23         -1.9790    13.5100     0.9020 hc         1 UNL       0.000000
     89 H24         -1.9920    13.4920    -0.9120 hc         1 UNL       0.000000
     90 H25          0.4380    14.1440     0.8870 hc         1 UNL       0.000000
     91 H26         -0.5730    15.3400    -0.0180 hc         1 UNL       0.000000
     92 H27          0.4340    14.1370    -0.9220 hc         1 UNL       0.000000
     93 H28          0.5710     4.3350    -0.9500 hc         1 UNL       0.000000
     94 H29          0.3170     4.4930     0.9700 hc         1 UNL       0.000000
     95 H30          1.0860     6.7540     0.7150 hc         1 UNL       0.000000
     96 H31          1.1320     6.5730    -1.1090 hc         1 UNL       0.000000
     97 H32          2.7030     4.6880    -0.8390 hc         1 UNL       0.000000
     98 H33          2.5960     4.8090     0.9710 hc         1 UNL       0.000000
     99 H34          3.5240     7.0610     0.8970 hc         1 UNL       0.000000
    100 H35          3.5570     7.0080    -0.9230 hc         1 UNL       0.000000
    101 H36          5.0000     4.9810    -0.8630 hc         1 UNL       0.000000
    102 H37          4.9910     5.0050     0.9490 hc         1 UNL       0.000000
    103 H38          5.9910     7.2730     0.9240 hc         1 UNL       0.000000
    104 H39          5.9770     7.2660    -0.8920 hc         1 UNL       0.000000
    105 H40          7.4480     5.2510    -0.9060 hc         1 UNL       0.000000
    106 H41          7.4650     5.2420     0.9050 hc         1 UNL       0.000000
    107 H42          8.4430     7.5400    -0.9050 hc         1 UNL       0.000000
    108 H43          9.4880     6.3570    -0.0140 hc         1 UNL       0.000000
    109 H44          8.4580     7.5300     0.9070 hc         1 UNL       0.000000
    110 H45          3.3180    -2.5920     0.0340 ha         1 UNL       0.000000
    111 H46          0.8800    -2.3890     0.0480 ha         1 UNL       0.000000
    112 H47          5.7740    -1.5540     0.0230 ha         1 UNL       0.000000
    113 H48          9.0420    -4.2300     0.0020 h1         1 UNL       0.000000
    114 H49         10.5930    -3.9650     0.8990 h1         1 UNL       0.000000
    115 H50         10.5880    -3.9610    -0.9010 h1         1 UNL       0.000000
    116 C55        -11.7520    12.7480     0.0010 ce         1 UNL       0.000000
    117 C56        -12.9120    13.7250     0.0010 cd         1 UNL       0.000000
    118 C57        -14.4050    13.4410     0.0010 c          1 UNL       0.000000
    119 C58        -15.2310    14.7190     0.0010 ca         1 UNL       0.000000
    120 C59        -12.9620    15.3570     0.0010 cd         1 UNL       0.000000
    121 C60        -14.4150    15.8210     0.0010 ca         1 UNL       0.000000
    122 C61        -15.0210    17.1400     0.0010 ca         1 UNL       0.000000
    123 C62        -16.6410    14.9100     0.0010 ca         1 UNL       0.000000
    124 C63        -17.2060    16.2120     0.0000 ca         1 UNL       0.000000
    125 C64        -16.3900    17.3290     0.0000 ca         1 UNL       0.000000
    126 C65        -12.0110    16.3540     0.0010 ce         1 UNL       0.000000
    127 C66        -12.2940    17.8000     0.0010 cg         1 UNL       0.000000
    128 C67        -10.6230    16.1200     0.0010 cg         1 UNL       0.000000
    129 N7         -12.5310    18.9430     0.0010 n1         1 UNL       0.000000
    130 N8          -9.4770    16.0120     0.0010 n1         1 UNL       0.000000
    131 C68         12.6490     1.0240     0.0050 ce         1 UNL       0.000000
    132 C69         13.7250     1.9890     0.0040 cd         1 UNL       0.000000
    133 C70         13.4860     3.4400     0.0030 c          1 UNL       0.000000
    134 C71         15.3430     1.9320     0.0030 cd         1 UNL       0.000000
    135 C72         15.8240     3.3830     0.0020 ca         1 UNL       0.000000
    136 C73         14.7240     4.2010     0.0020 ca         1 UNL       0.000000
    137 O           12.4050     3.9800     0.0020 o          1 UNL       0.000000
    138 O1         -14.9060    12.3320     0.0010 o          1 UNL       0.000000
    139 C74         14.8320     5.5930     0.0020 ca         1 UNL       0.000000
    140 C75         17.1210     4.0090     0.0020 ca         1 UNL       0.000000
    141 C76         16.0940     6.1940     0.0020 ca         1 UNL       0.000000
    142 C77         17.2400     5.4030     0.0020 ca         1 UNL       0.000000
    143 C78         16.2990     0.9200     0.0020 ce         1 UNL       0.000000
    144 C79         16.0600    -0.4890     0.0020 cg         1 UNL       0.000000
    145 C80         17.7430     1.1770     0.0010 cg         1 UNL       0.000000
    146 N9          18.8880     1.3870     0.0010 n1         1 UNL       0.000000
    147 N10         15.9840    -1.6420     0.0010 n1         1 UNL       0.000000
    148 H51        -11.9860     7.5940     0.0010 ha         1 UNL       0.000000
    149 H52        -12.9830     9.8920     0.0030 ha         1 UNL       0.000000
    150 H53          7.9820     2.9300     0.0170 ha         1 UNL       0.000000
    151 H54         10.3690     3.1440     0.0140 ha         1 UNL       0.000000
    152 H55        -10.8670    13.3680     0.0010 ha         1 UNL       0.000000
    153 H56        -14.5630    18.0860     0.0000 ha         1 UNL       0.000000
    154 H57        -17.3110    14.0730     0.0010 ha         1 UNL       0.000000
    155 H58        -18.2770    16.3740     0.0000 ha         1 UNL       0.000000
    156 H59        -16.8120    18.3450    -0.0000 ha         1 UNL       0.000000
    157 H60         13.0550     0.0120     0.0050 ha         1 UNL       0.000000
    158 H61         13.9420     6.1980     0.0020 ha         1 UNL       0.000000
    159 H62         18.0740     3.5320     0.0010 ha         1 UNL       0.000000
    160 H63         16.1850     7.2710     0.0020 ha         1 UNL       0.000000
    161 H64         18.2240     5.8720     0.0010 ha         1 UNL       0.000000
@<TRIPOS>BOND
     1     2     1 1   
     2     2     3 ar  
     3     3     4 1   
     4     4     5 ar  
     5     5     1 1   
     6     2     6 ar  
     7     3     7 ar  
     8     7     8 ar  
     9     6     9 ar  
    10     9     8 ar  
    11     4    10 ar  
    12     5    11 ar  
    13    10    12 ar  
    14    11    13 ar  
    15    13    12 ar  
    16     8    14 ar  
    17     9    15 ar  
    18    15    16 ar  
    19    14    17 ar  
    20    16    17 ar  
    21    16    18 1   
    22    15    19 1   
    23    19    20 1   
    24    20    18 2   
    25    20    21 1   
    26    21    22 ar  
    27    22    23 ar  
    28    23    24 ar  
    29    24    25 ar  
    30    25    26 ar  
    31    26    21 ar  
    32    25    27 2   
    33    26    28 2   
    34    28    29 1   
    35    29    27 1   
    36    29    30 1   
    37     1    31 1   
    38    31    32 1   
    39    32    33 1   
    40    33    34 1   
    41    34    35 1   
    42    35    36 1   
    43    36    37 1   
    44    37    38 1   
    45    38    39 1   
    46    31    40 1   
    47    40    41 1   
    48    41    42 1   
    49    42    43 1   
    50    43    44 1   
    51    44    45 1   
    52    45    46 1   
    53    46    47 1   
    54    13    48 ar  
    55    48    49 ar  
    56    49    50 ar  
    57    12    51 ar  
    58    51    50 ar  
    59    48    52 1   
    60    52    53 1   
    61    49    54 1   
    62    54    53 2   
    63    53    55 1   
    64    55    56 ar  
    65    56    57 ar  
    66    57    58 ar  
    67    55    59 ar  
    68    58    60 ar  
    69    59    60 ar  
    70    56    61 2   
    71    57    62 2   
    72    61    63 1   
    73    63    62 1   
    74    63    64 1   
    75     6    65 1   
    76     7    66 1   
    77    10    67 1   
    78    11    68 1   
    79    14    69 1   
    80    17    70 1   
    81    18    71 1   
    82    30    72 1   
    83    30    73 1   
    84    30    74 1   
    85    31    75 1   
    86    32    76 1   
    87    32    77 1   
    88    33    78 1   
    89    33    79 1   
    90    34    80 1   
    91    34    81 1   
    92    35    82 1   
    93    35    83 1   
    94    36    84 1   
    95    36    85 1   
    96    37    86 1   
    97    37    87 1   
    98    38    88 1   
    99    38    89 1   
   100    39    90 1   
   101    39    91 1   
   102    39    92 1   
   103    40    93 1   
   104    40    94 1   
   105    41    95 1   
   106    41    96 1   
   107    42    97 1   
   108    42    98 1   
   109    43    99 1   
   110    43   100 1   
   111    44   101 1   
   112    44   102 1   
   113    45   103 1   
   114    45   104 1   
   115    46   105 1   
   116    46   106 1   
   117    47   107 1   
   118    47   108 1   
   119    47   109 1   
   120    50   110 1   
   121    51   111 1   
   122    54   112 1   
   123    64   113 1   
   124    64   114 1   
   125    64   115 1   
   126    24   116 1   
   127   116   117 2   
   128   117   118 1   
   129   118   119 1   
   130   117   120 1   
   131   120   121 1   
   132   121   119 ar  
   133   121   122 ar  
   134   119   123 ar  
   135   123   124 ar  
   136   122   125 ar  
   137   125   124 ar  
   138   120   126 2   
   139   126   127 1   
   140   126   128 1   
   141   127   129 3   
   142   128   130 3   
   143    58   131 1   
   144   131   132 2   
   145   132   133 1   
   146   132   134 1   
   147   134   135 1   
   148   133   136 1   
   149   136   135 ar  
   150   133   137 2   
   151   118   138 2   
   152   136   139 ar  
   153   135   140 ar  
   154   139   141 ar  
   155   140   142 ar  
   156   141   142 ar  
   157   134   143 2   
   158   143   144 1   
   159   143   145 1   
   160   145   146 3   
   161   144   147 3   
   162    22   148 1   
   163    23   149 1   
   164    59   150 1   
   165    60   151 1   
   166   116   152 1   
   167   122   153 1   
   168   123   154 1   
   169   124   155 1   
   170   125   156 1   
   171   131   157 1   
   172   139   158 1   
   173   140   159 1   
   174   141   160 1   
   175   142   161 1   
@<TRIPOS>SUBSTRUCTURE
     1 UNL         1 TEMP              0 ****  ****    0 ROOT
