@<TRIPOS>MOLECULE
*****
  176   186     1     0     0
SMALL
dc


@<TRIPOS>ATOM
      1 C           17.7980   -10.3550     5.9380 ca         1 UNL       0.000000
      2 C1          17.1600    -9.9490     4.7350 ca         1 UNL       0.000000
      3 C2          16.8430    -8.5830     4.5790 ca         1 UNL       0.000000
      4 C3          17.1450    -7.6190     5.5580 ca         1 UNL       0.000000
      5 C4          17.7550    -8.0270     6.7440 ca         1 UNL       0.000000
      6 C5          18.0680    -9.3720     6.8880 ca         1 UNL       0.000000
      7 H           16.9350   -10.6140     3.9300 ha         1 UNL       0.000000
      8 H1          18.0020    -7.3650     7.5410 ha         1 UNL       0.000000
      9 C6          16.1890    -7.8820     3.4920 cc         1 UNL       0.000000
     10 C7          16.1260    -6.5630     3.7800 cd         1 UNL       0.000000
     11 C8          16.7470    -6.2030     5.1050 c3         1 UNL       0.000000
     12 S           15.4590    -8.1820     2.0050 ss         1 UNL       0.000000
     13 C9          15.0380    -6.5360     1.7260 cc         1 UNL       0.000000
     14 C10         15.5020    -5.7820     2.8160 cd         1 UNL       0.000000
     15 C11         18.3400   -11.7370     6.4390 c3         1 UNL       0.000000
     16 C12         18.9280   -11.2870     7.7970 cc         1 UNL       0.000000
     17 C13         18.7240    -9.9740     7.9890 cd         1 UNL       0.000000
     18 H2          15.3890    -4.7170     2.9470 ha         1 UNL       0.000000
     19 C14         19.5680   -11.8950     8.9120 cc         1 UNL       0.000000
     20 C15         19.8410   -10.9680     9.9580 cd         1 UNL       0.000000
     21 H3          19.7970   -12.9490     8.9610 ha         1 UNL       0.000000
     22 S1          19.2840    -9.4400     9.4520 ss         1 UNL       0.000000
     23 C16         19.3750   -12.2520     5.3830 c3         1 UNL       0.000000
     24 C17         20.2350   -13.5120     5.7110 c3         1 UNL       0.000000
     25 C18         20.5140   -14.2430     4.3580 c3         1 UNL       0.000000
     26 C19         21.3100   -15.5420     4.4150 c3         1 UNL       0.000000
     27 H4          21.0270   -13.5550     3.6500 hc         1 UNL       0.000000
     28 H5          19.5300   -14.5110     3.9130 hc         1 UNL       0.000000
     29 H6          20.8490   -16.2530     5.1320 hc         1 UNL       0.000000
     30 H7          22.3700   -15.3450     4.6620 hc         1 UNL       0.000000
     31 H8          21.3130   -16.0090     3.4070 hc         1 UNL       0.000000
     32 C20         21.5420   -13.0810     6.4360 c3         1 UNL       0.000000
     33 H9          19.6330   -14.1880     6.3520 hc         1 UNL       0.000000
     34 C21         22.1880   -14.1810     7.3040 c3         1 UNL       0.000000
     35 H10         21.3320   -12.2520     7.1320 hc         1 UNL       0.000000
     36 H11         22.2380   -12.6670     5.6770 hc         1 UNL       0.000000
     37 C22         23.4680   -13.7020     8.0080 c3         1 UNL       0.000000
     38 H12         22.4360   -15.0960     6.7460 hc         1 UNL       0.000000
     39 H13         21.4540   -14.4740     8.0850 hc         1 UNL       0.000000
     40 C23         24.6110   -13.4080     7.0330 c3         1 UNL       0.000000
     41 H14         23.8070   -14.5100     8.6920 hc         1 UNL       0.000000
     42 H15         23.2530   -12.7990     8.6200 hc         1 UNL       0.000000
     43 H16         24.8440   -14.3120     6.4300 hc         1 UNL       0.000000
     44 H17         25.5190   -13.1210     7.6040 hc         1 UNL       0.000000
     45 H18         24.3620   -12.5700     6.3520 hc         1 UNL       0.000000
     46 H19         16.4390   -15.3250     7.3120 hc         1 UNL       0.000000
     47 H20         11.9960   -11.5250     4.7340 hc         1 UNL       0.000000
     48 H21         13.9210   -12.9630     5.5630 hc         1 UNL       0.000000
     49 H22         14.9370   -14.3920     7.0320 hc         1 UNL       0.000000
     50 C24         15.7990   -14.8720     6.5230 c3         1 UNL       0.000000
     51 H23         14.7750   -16.7720     6.3160 hc         1 UNL       0.000000
     52 C25         17.2390   -12.8090     6.7900 c3         1 UNL       0.000000
     53 C26         12.7280   -10.9230     4.1550 c3         1 UNL       0.000000
     54 H24         13.5660   -12.6180     3.1170 hc         1 UNL       0.000000
     55 C27         14.6410   -12.3420     4.9890 c3         1 UNL       0.000000
     56 C28         15.2940   -16.0360     5.6660 c3         1 UNL       0.000000
     57 C29         13.9230   -11.7800     3.7550 c3         1 UNL       0.000000
     58 H25         15.5070   -13.9990     3.8910 hc         1 UNL       0.000000
     59 C30         16.6410   -13.8160     5.7460 c3         1 UNL       0.000000
     60 H26         12.2270   -10.5330     3.2440 hc         1 UNL       0.000000
     61 C31         15.8510   -13.1940     4.5720 c3         1 UNL       0.000000
     62 H27         16.1450   -16.5460     5.1670 hc         1 UNL       0.000000
     63 H28         13.0670   -10.0650     4.7700 hc         1 UNL       0.000000
     64 H29         14.9770   -11.5000     5.6300 hc         1 UNL       0.000000
     65 H30         14.5620   -15.6990     4.9040 hc         1 UNL       0.000000
     66 H31         17.4870   -14.3750     5.2940 hc         1 UNL       0.000000
     67 H32         14.6250   -11.1560     3.1610 hc         1 UNL       0.000000
     68 H33         16.5450   -12.6160     3.9550 hc         1 UNL       0.000000
     69 H34         18.1590    -5.3340     7.6850 hc         1 UNL       0.000000
     70 H35         23.8010    -4.6340     4.8920 hc         1 UNL       0.000000
     71 H36         21.4460    -4.7560     5.7850 hc         1 UNL       0.000000
     72 H37         19.7750    -5.7860     7.0050 hc         1 UNL       0.000000
     73 C32         19.0580    -4.9570     7.1810 c3         1 UNL       0.000000
     74 H38         19.8690    -4.5020     9.1390 hc         1 UNL       0.000000
     75 C33         18.0090    -5.3090     4.7950 c3         1 UNL       0.000000
     76 C34         23.3960    -4.1980     3.9540 c3         1 UNL       0.000000
     77 H39         22.3690    -2.5880     4.9540 hc         1 UNL       0.000000
     78 C35         21.0410    -4.3080     4.8540 c3         1 UNL       0.000000
     79 C36         19.6640    -3.9720     8.1840 c3         1 UNL       0.000000
     80 C37         22.1220    -3.4080     4.2450 c3         1 UNL       0.000000
     81 H40         20.0480    -2.6590     5.8500 hc         1 UNL       0.000000
     82 C38         18.6200    -4.3180     5.8440 c3         1 UNL       0.000000
     83 H41         24.1620    -3.5230     3.5180 hc         1 UNL       0.000000
     84 C39         19.7690    -3.4980     5.1780 c3         1 UNL       0.000000
     85 H42         18.9540    -3.1410     8.3860 hc         1 UNL       0.000000
     86 H43         23.1880    -5.0160     3.2320 hc         1 UNL       0.000000
     87 H44         20.8120    -5.1210     4.1360 hc         1 UNL       0.000000
     88 H45         20.6270    -3.5590     7.8220 hc         1 UNL       0.000000
     89 H46         17.8250    -3.5790     6.0910 hc         1 UNL       0.000000
     90 H47         21.7480    -2.9620     3.2980 hc         1 UNL       0.000000
     91 H48         19.3870    -3.0270     4.2450 hc         1 UNL       0.000000
     92 H49         14.7480    -8.1100     6.1130 hc         1 UNL       0.000000
     93 H50         13.2730    -0.8010     6.6750 hc         1 UNL       0.000000
     94 H51         14.2860    -3.0790     6.4030 hc         1 UNL       0.000000
     95 H52         14.6820    -7.3880     7.7590 hc         1 UNL       0.000000
     96 C40         14.2010    -7.4050     6.7580 c3         1 UNL       0.000000
     97 H53         12.8800    -9.0450     7.2710 hc         1 UNL       0.000000
     98 C41         15.7030    -5.4480     5.9880 c3         1 UNL       0.000000
     99 C42         12.2680    -1.2750     6.6490 c3         1 UNL       0.000000
    100 H54         12.6910    -2.6500     8.2570 hc         1 UNL       0.000000
    101 C43         13.2910    -3.5670     6.3780 c3         1 UNL       0.000000
    102 C44         12.7980    -8.0050     6.8900 c3         1 UNL       0.000000
    103 C45         12.3370    -2.6960     7.2040 c3         1 UNL       0.000000
    104 H55         13.7580    -4.9470     7.9930 hc         1 UNL       0.000000
    105 C46         14.2410    -5.9900     6.1190 c3         1 UNL       0.000000
    106 H56         11.5730    -0.6670     7.2650 hc         1 UNL       0.000000
    107 C47         13.3720    -4.9950     6.9510 c3         1 UNL       0.000000
    108 H57         12.2940    -8.0270     5.9010 hc         1 UNL       0.000000
    109 H58         11.8990    -1.2870     5.6010 hc         1 UNL       0.000000
    110 H59         12.9290    -3.6120     5.3270 hc         1 UNL       0.000000
    111 H60         12.1750    -7.4430     7.6130 hc         1 UNL       0.000000
    112 H61         13.7930    -6.0570     5.1030 hc         1 UNL       0.000000
    113 H62         11.3170    -3.1370     7.1900 hc         1 UNL       0.000000
    114 H63         12.3300    -5.3700     6.9770 hc         1 UNL       0.000000
    115 H64         18.7880    -5.9710     4.3630 hc         1 UNL       0.000000
    116 H65         17.7050    -4.6200     3.9740 hc         1 UNL       0.000000
    117 H66         18.7440   -12.4730     4.4980 hc         1 UNL       0.000000
    118 H67         20.0530   -11.4360     5.0440 hc         1 UNL       0.000000
    119 H68         17.7390   -13.4870     7.5170 hc         1 UNL       0.000000
    120 H69         16.4230   -12.3100     7.3580 hc         1 UNL       0.000000
    121 H70         16.1090    -5.3010     7.0050 hc         1 UNL       0.000000
    122 H71         15.6250    -4.4560     5.5050 hc         1 UNL       0.000000
    123 C48         13.2570    -3.9990    -0.5170 ca         1 UNL       0.000000
    124 C49         12.7830    -4.7520    -1.6080 ca         1 UNL       0.000000
    125 C50         13.0830    -6.1330    -1.5970 ca         1 UNL       0.000000
    126 C51         13.8220    -6.7340    -0.5230 ca         1 UNL       0.000000
    127 N           12.6940    -6.9870    -2.5810 nc         1 UNL       0.000000
    128 S2          13.2900    -8.4370    -2.0660 ss         1 UNL       0.000000
    129 N1          14.0320    -8.0710    -0.6380 nc         1 UNL       0.000000
    130 C52         13.9800    -4.5840     0.5280 ca         1 UNL       0.000000
    131 C53         14.2800    -5.9620     0.5610 ca         1 UNL       0.000000
    132 H72         13.0960    -2.9490    -0.4230 ha         1 UNL       0.000000
    133 H73         14.2910    -3.9180     1.3170 ha         1 UNL       0.000000
    134 C54         11.9880    -4.1810    -2.7580 ce         1 UNL       0.000000
    135 C55         11.5310    -2.9150    -2.9730 cd         1 UNL       0.000000
    136 S3          11.7340    -1.4790    -1.9120 ss         1 UNL       0.000000
    137 C56         10.7970    -0.5280    -3.1040 c          1 UNL       0.000000
    138 N2          10.3500    -1.2600    -4.2530 n          1 UNL       0.000000
    139 C57         10.7520    -2.5550    -4.1770 c          1 UNL       0.000000
    140 O           10.4820    -3.3690    -5.0500 o          1 UNL       0.000000
    141 C58          9.5640    -0.8120    -5.4180 c3         1 UNL       0.000000
    142 C59          9.1300     0.6540    -5.4650 c3         1 UNL       0.000000
    143 H74          8.6380    -1.4250    -5.4750 h1         1 UNL       0.000000
    144 H75         10.1600    -1.0020    -6.3380 h1         1 UNL       0.000000
    145 H76          8.4630     0.8960    -4.6110 hc         1 UNL       0.000000
    146 H77          8.5520     0.8320    -6.3970 hc         1 UNL       0.000000
    147 H78         10.0120     1.3280    -5.4900 hc         1 UNL       0.000000
    148 S4          10.5540     0.8660    -2.8490 s          1 UNL       0.000000
    149 H79         11.7350    -4.8970    -3.5330 ha         1 UNL       0.000000
    150 H80         24.4770   -13.5790    19.5960 h1         1 UNL       0.000000
    151 H81         25.5600   -15.7940    19.2730 hc         1 UNL       0.000000
    152 C60         25.2600   -13.6760    18.8120 c3         1 UNL       0.000000
    153 S5          20.2970    -8.2590    13.6120 ss         1 UNL       0.000000
    154 C61         23.8220   -12.6820    17.0980 c          1 UNL       0.000000
    155 C62         26.1490   -14.8550    19.2120 c3         1 UNL       0.000000
    156 C63         22.4700   -11.8080    15.2100 cf         1 UNL       0.000000
    157 S6          25.3700   -15.9610    16.5390 s          1 UNL       0.000000
    158 C64         21.7480   -12.6740    12.8550 ca         1 UNL       0.000000
    159 C65         21.7970   -11.6780    13.8600 ca         1 UNL       0.000000
    160 S7          23.6890   -14.3540    14.9830 ss         1 UNL       0.000000
    161 C66         21.1090   -12.4490    11.6110 ca         1 UNL       0.000000
    162 C67         21.1670   -10.4540    13.5650 ca         1 UNL       0.000000
    163 C68         20.4950   -11.2160    11.2990 ca         1 UNL       0.000000
    164 C69         20.5300   -10.2200    12.3060 ca         1 UNL       0.000000
    165 C70         23.2270   -12.8000    15.7470 cc         1 UNL       0.000000
    166 C71         24.6440   -14.7230    16.4640 c          1 UNL       0.000000
    167 O1          23.6420   -11.7040    17.8140 o          1 UNL       0.000000
    168 N3          24.6020   -13.7200    17.4910 n          1 UNL       0.000000
    169 N4          21.1270    -9.4140    14.4410 nc         1 UNL       0.000000
    170 N5          19.9700    -8.9890    12.1720 nc         1 UNL       0.000000
    171 H82         26.5720   -14.6660    20.2230 hc         1 UNL       0.000000
    172 H83         22.3450   -10.9480    15.8600 ha         1 UNL       0.000000
    173 H84         22.1950   -13.6390    12.9990 ha         1 UNL       0.000000
    174 H85         21.1140   -13.2500    10.8840 ha         1 UNL       0.000000
    175 H86         25.9000   -12.7670    18.8560 h1         1 UNL       0.000000
    176 H87         27.0040   -14.9630    18.5130 hc         1 UNL       0.000000
@<TRIPOS>BOND
     1     1     2 ar  
     2     2     3 ar  
     3     3     4 ar  
     4     4     5 ar  
     5     5     6 ar  
     6     6     1 ar  
     7     2     7 1   
     8     5     8 1   
     9     3     9 1   
    10     9    10 2   
    11    10    11 1   
    12    11     4 1   
    13     9    12 1   
    14    12    13 1   
    15    13    14 2   
    16    14    10 1   
    17     1    15 1   
    18    15    16 1   
    19    16    17 2   
    20    17     6 1   
    21    14    18 1   
    22    19    20 2   
    23    19    16 1   
    24    19    21 1   
    25    20    22 1   
    26    22    17 1   
    27    23    24 1   
    28    24    25 1   
    29    25    26 1   
    30    25    27 1   
    31    25    28 1   
    32    26    29 1   
    33    26    30 1   
    34    26    31 1   
    35    24    32 1   
    36    24    33 1   
    37    32    34 1   
    38    32    35 1   
    39    32    36 1   
    40    34    37 1   
    41    34    38 1   
    42    34    39 1   
    43    37    40 1   
    44    37    41 1   
    45    37    42 1   
    46    40    43 1   
    47    40    44 1   
    48    40    45 1   
    49    46    50 1   
    50    51    56 1   
    51    62    56 1   
    52    50    56 1   
    53    50    49 1   
    54    50    59 1   
    55    56    65 1   
    56    52    59 1   
    57    48    55 1   
    58    59    66 1   
    59    59    61 1   
    60    58    61 1   
    61    55    61 1   
    62    55    64 1   
    63    55    57 1   
    64    61    68 1   
    65    47    53 1   
    66    54    57 1   
    67    57    53 1   
    68    57    67 1   
    69    53    63 1   
    70    53    60 1   
    71    69    73 1   
    72    74    79 1   
    73    85    79 1   
    74    73    79 1   
    75    73    72 1   
    76    73    82 1   
    77    79    88 1   
    78    75    82 1   
    79    71    78 1   
    80    82    89 1   
    81    82    84 1   
    82    81    84 1   
    83    78    84 1   
    84    78    87 1   
    85    78    80 1   
    86    84    91 1   
    87    70    76 1   
    88    77    80 1   
    89    80    76 1   
    90    80    90 1   
    91    76    86 1   
    92    76    83 1   
    93    92    96 1   
    94    97   102 1   
    95   108   102 1   
    96    96   102 1   
    97    96    95 1   
    98    96   105 1   
    99   102   111 1   
   100    98   105 1   
   101    94   101 1   
   102   105   112 1   
   103   105   107 1   
   104   104   107 1   
   105   101   107 1   
   106   101   110 1   
   107   101   103 1   
   108   107   114 1   
   109    93    99 1   
   110   100   103 1   
   111   103    99 1   
   112   103   113 1   
   113    99   109 1   
   114    99   106 1   
   115    75    11 1   
   116    75   115 1   
   117    75   116 1   
   118    23    15 1   
   119    23   117 1   
   120    23   118 1   
   121    52    15 1   
   122    52   119 1   
   123    52   120 1   
   124    98    11 1   
   125    98   121 1   
   126    98   122 1   
   127   123   124 ar  
   128   124   125 ar  
   129   125   126 ar  
   130   125   127 2   
   131   127   128 1   
   132   128   129 1   
   133   129   126 2   
   134   123   130 ar  
   135   126   131 ar  
   136   130   131 ar  
   137   123   132 1   
   138   130   133 1   
   139   124   134 1   
   140   134   135 2   
   141   135   136 1   
   142   136   137 1   
   143   137   138 1   
   144   138   139 1   
   145   139   135 1   
   146   139   140 2   
   147   138   141 1   
   148   141   142 1   
   149   141   143 1   
   150   141   144 1   
   151   142   145 1   
   152   142   146 1   
   153   142   147 1   
   154   137   148 2   
   155   134   149 1   
   156   171   155 1   
   157   175   152 1   
   158   176   155 1   
   159   150   152 1   
   160   155   152 1   
   161   155   151 1   
   162   152   168 1   
   163   167   154 2   
   164   154   168 1   
   165   154   165 1   
   166   168   166 1   
   167   172   156 1   
   168   169   153 1   
   169   169   162 2   
   170   165   156 2   
   171   165   160 1   
   172   166   157 2   
   173   166   160 1   
   174   156   159 1   
   175   153   170 1   
   176   162   159 ar  
   177   162   164 ar  
   178   159   158 ar  
   179   170   164 2   
   180   164   163 ar  
   181   158   173 1   
   182   158   161 ar  
   183   163   161 ar  
   184   161   174 1   
   185   131    13 1   
   186   163    20 1   
@<TRIPOS>SUBSTRUCTURE
     1 UNL         1 TEMP              0 ****  ****    0 ROOT
