@<TRIPOS>MOLECULE
*****
  192   206     1     0     0
SMALL
dc


@<TRIPOS>ATOM
      1 C            6.9550    -5.2070     1.1050 cc         1 UNL       0.000000
      2 C1           6.3830    -6.1570     0.2590 cd         1 UNL       0.000000
      3 C2           7.9620    -5.7230     1.9130 cc         1 UNL       0.000000
      4 S            7.2810    -7.6250     0.4540 ss         1 UNL       0.000000
      5 C3           8.3090    -7.0120     1.6650 cd         1 UNL       0.000000
      6 C4           8.5770    -5.1640     3.1720 c3         1 UNL       0.000000
      7 C5           9.3200    -6.4210     3.6280 ca         1 UNL       0.000000
      8 C6           9.2430    -7.4760     2.7040 ca         1 UNL       0.000000
      9 C7           9.5340    -3.9810     2.9920 ca         1 UNL       0.000000
     10 C8           7.3890    -4.7610     4.0700 ca         1 UNL       0.000000
     11 C9           6.6590    -3.6010     3.7410 ca         1 UNL       0.000000
     12 C10          5.5060    -3.2490     4.4310 ca         1 UNL       0.000000
     13 C11          5.0580    -4.0150     5.5140 ca         1 UNL       0.000000
     14 C12          5.8000    -5.1520     5.8820 ca         1 UNL       0.000000
     15 C13          9.8610    -3.4470     1.7280 ca         1 UNL       0.000000
     16 C14         10.7120    -2.3390     1.6190 ca         1 UNL       0.000000
     17 C15         11.2560    -1.7310     2.7630 ca         1 UNL       0.000000
     18 C16         10.9350    -2.2700     4.0220 ca         1 UNL       0.000000
     19 C17         10.0900    -3.3720     4.1310 ca         1 UNL       0.000000
     20 C18          6.9440    -5.5260     5.1680 ca         1 UNL       0.000000
     21 H            9.4590    -3.8740     0.8190 ha         1 UNL       0.000000
     22 H1           5.4750    -5.7760     6.7050 ha         1 UNL       0.000000
     23 H2           7.4410    -6.4340     5.4690 ha         1 UNL       0.000000
     24 H3           4.9680    -2.3870     4.0800 ha         1 UNL       0.000000
     25 H4           6.9630    -2.9680     2.9190 ha         1 UNL       0.000000
     26 H5          10.9390    -1.9450     0.6350 ha         1 UNL       0.000000
     27 H6          11.3160    -1.8480     4.9400 ha         1 UNL       0.000000
     28 H7           9.8530    -3.7310     5.1200 ha         1 UNL       0.000000
     29 C19          3.7730    -3.6820     6.2470 c3         1 UNL       0.000000
     30 C20          3.7320    -2.3220     6.9830 c3         1 UNL       0.000000
     31 H8           3.5960    -4.4590     7.0220 hc         1 UNL       0.000000
     32 H9           2.9240    -3.7590     5.5380 hc         1 UNL       0.000000
     33 C21          3.7730    -1.0490     6.1140 c3         1 UNL       0.000000
     34 H10          4.5630    -2.2840     7.7200 hc         1 UNL       0.000000
     35 H11          2.7770    -2.2940     7.5520 hc         1 UNL       0.000000
     36 C22          2.6420    -1.0020     5.0690 c3         1 UNL       0.000000
     37 H12          4.7630    -0.9450     5.6310 hc         1 UNL       0.000000
     38 H13          3.6700    -0.1720     6.7900 hc         1 UNL       0.000000
     39 C23          2.7030     0.2780     4.2280 c3         1 UNL       0.000000
     40 H14          2.7230    -1.8640     4.3760 hc         1 UNL       0.000000
     41 H15          1.6600    -1.0580     5.5890 hc         1 UNL       0.000000
     42 C24          1.5870     0.3010     3.1840 c3         1 UNL       0.000000
     43 H16          3.6820     0.3310     3.7030 hc         1 UNL       0.000000
     44 H17          2.6010     1.1660     4.8880 hc         1 UNL       0.000000
     45 H18          1.6810    -0.5670     2.4960 hc         1 UNL       0.000000
     46 H19          1.6540     1.2340     2.5860 hc         1 UNL       0.000000
     47 H20          0.5930     0.2660     3.6790 hc         1 UNL       0.000000
     48 C25         12.1440    -0.5090     2.5860 c3         1 UNL       0.000000
     49 C26         12.6770     0.0950     3.9020 c3         1 UNL       0.000000
     50 H21         11.5390     0.2520     2.0530 hc         1 UNL       0.000000
     51 H22         13.0100    -0.7860     1.9470 hc         1 UNL       0.000000
     52 C27         13.5520     1.3460     3.7220 c3         1 UNL       0.000000
     53 H23         13.2960    -0.6770     4.4090 hc         1 UNL       0.000000
     54 H24         11.8260     0.3640     4.5660 hc         1 UNL       0.000000
     55 C28         12.7720     2.5500     3.1610 c3         1 UNL       0.000000
     56 H25         14.4200     1.1110     3.0680 hc         1 UNL       0.000000
     57 H26         13.9350     1.6040     4.7300 hc         1 UNL       0.000000
     58 C29         13.6200     3.8270     3.0430 c3         1 UNL       0.000000
     59 H27         11.8910     2.7610     3.8060 hc         1 UNL       0.000000
     60 H28         12.4090     2.3040     2.1430 hc         1 UNL       0.000000
     61 C30         14.0880     4.3760     4.3930 c3         1 UNL       0.000000
     62 H29         12.9930     4.6090     2.5620 hc         1 UNL       0.000000
     63 H30         14.5000     3.6380     2.3910 hc         1 UNL       0.000000
     64 H31         13.2150     4.5840     5.0480 hc         1 UNL       0.000000
     65 H32         14.6410     5.3250     4.2310 hc         1 UNL       0.000000
     66 H33         14.7720     3.6710     4.9040 hc         1 UNL       0.000000
     67 C31          9.9390    -6.6150     4.8590 ca         1 UNL       0.000000
     68 C32         10.4790    -7.8640     5.1250 ca         1 UNL       0.000000
     69 C33         10.5550    -8.9030     4.2100 ca         1 UNL       0.000000
     70 C34          9.8960    -8.7210     2.9450 ca         1 UNL       0.000000
     71 H34          9.9260    -5.8560     5.6260 ha         1 UNL       0.000000
     72 H35          9.8110    -9.5130     2.2190 ha         1 UNL       0.000000
     73 C35         10.9460    -8.3240     6.3800 cd         1 UNL       0.000000
     74 C36         11.2360   -10.1490     4.8900 c3         1 UNL       0.000000
     75 C37         11.3760    -9.6170     6.3560 cc         1 UNL       0.000000
     76 S1          10.9740    -7.5990     7.8810 ss         1 UNL       0.000000
     77 C38         11.6190    -8.9690     8.6030 cd         1 UNL       0.000000
     78 C39         11.8290    -9.9970     7.6710 cc         1 UNL       0.000000
     79 C40         12.6410   -10.5740     4.4520 ca         1 UNL       0.000000
     80 C41         10.3050   -11.3340     4.6180 ca         1 UNL       0.000000
     81 C42         10.3200   -11.8620     3.3090 ca         1 UNL       0.000000
     82 C43          9.5210   -12.9280     2.9480 ca         1 UNL       0.000000
     83 C44          8.6530   -13.5100     3.8750 ca         1 UNL       0.000000
     84 C45          8.6300   -13.0120     5.1950 ca         1 UNL       0.000000
     85 C46          9.4570   -11.9320     5.5680 ca         1 UNL       0.000000
     86 C47         13.4400    -9.8980     3.5110 ca         1 UNL       0.000000
     87 C48         14.7380   -10.3720     3.2170 ca         1 UNL       0.000000
     88 C49         15.2470   -11.5200     3.8630 ca         1 UNL       0.000000
     89 C50         14.4330   -12.1920     4.7780 ca         1 UNL       0.000000
     90 C51         13.1560   -11.7360     5.0510 ca         1 UNL       0.000000
     91 C52         16.6550   -12.0290     3.6350 c3         1 UNL       0.000000
     92 C53         16.6850   -13.5020     3.1800 c3         1 UNL       0.000000
     93 H36         17.1840   -11.9510     4.6110 hc         1 UNL       0.000000
     94 H37         17.2000   -11.3970     2.9000 hc         1 UNL       0.000000
     95 C54         18.1130   -14.0660     3.1840 c3         1 UNL       0.000000
     96 H38         16.2260   -13.5990     2.1730 hc         1 UNL       0.000000
     97 H39         16.1000   -14.1230     3.8900 hc         1 UNL       0.000000
     98 C55         18.1090   -15.5690     2.8630 c3         1 UNL       0.000000
     99 H40         18.5450   -13.9310     4.2010 hc         1 UNL       0.000000
    100 H41         18.7430   -13.5160     2.4520 hc         1 UNL       0.000000
    101 C56         19.5190   -16.1650     2.9570 c3         1 UNL       0.000000
    102 H42         17.6990   -15.7300     1.8420 hc         1 UNL       0.000000
    103 H43         17.4570   -16.0940     3.5960 hc         1 UNL       0.000000
    104 C57         19.5020   -17.6660     2.6800 c3         1 UNL       0.000000
    105 H44         19.9250   -16.0000     3.9790 hc         1 UNL       0.000000
    106 H45         20.1870   -15.6660     2.2220 hc         1 UNL       0.000000
    107 H46         18.8580   -18.1880     3.4210 hc         1 UNL       0.000000
    108 H47         20.5320   -18.0730     2.7620 hc         1 UNL       0.000000
    109 H48         19.1180   -17.8680     1.6580 hc         1 UNL       0.000000
    110 C58          7.7810   -14.6570     3.4180 c3         1 UNL       0.000000
    111 C59          6.8410   -14.2030     2.2830 c3         1 UNL       0.000000
    112 H49          7.1740   -15.0620     4.2560 hc         1 UNL       0.000000
    113 H50          8.4490   -15.4670     3.0490 hc         1 UNL       0.000000
    114 C60          6.0740   -15.3710     1.6540 c3         1 UNL       0.000000
    115 H51          7.4310   -13.7340     1.4670 hc         1 UNL       0.000000
    116 H52          6.1320   -13.4440     2.6790 hc         1 UNL       0.000000
    117 C61          5.1840   -14.8650     0.5080 c3         1 UNL       0.000000
    118 H53          5.4510   -15.8780     2.4220 hc         1 UNL       0.000000
    119 H54          6.8080   -16.1020     1.2460 hc         1 UNL       0.000000
    120 C62          4.4660   -16.0170    -0.2020 c3         1 UNL       0.000000
    121 H55          5.8130   -14.3290    -0.2370 hc         1 UNL       0.000000
    122 H56          4.4340   -14.1530     0.9180 hc         1 UNL       0.000000
    123 C63          3.5810   -15.4940    -1.3310 c3         1 UNL       0.000000
    124 H57          3.8350   -16.5720     0.5250 hc         1 UNL       0.000000
    125 H58          5.2180   -16.7150    -0.6300 hc         1 UNL       0.000000
    126 H59          2.8040   -14.8110    -0.9270 hc         1 UNL       0.000000
    127 H60          3.0790   -16.3450    -1.8370 hc         1 UNL       0.000000
    128 H61          4.1920   -14.9460    -2.0810 hc         1 UNL       0.000000
    129 H62         10.9730   -11.4460     2.5510 ha         1 UNL       0.000000
    130 H63          9.5820   -13.2960     1.9310 ha         1 UNL       0.000000
    131 H64          7.9720   -13.4560     5.9310 ha         1 UNL       0.000000
    132 H65          9.4220   -11.5620     6.5840 ha         1 UNL       0.000000
    133 H66         12.5620   -12.2950     5.7620 ha         1 UNL       0.000000
    134 H67         13.0760    -9.0050     3.0210 ha         1 UNL       0.000000
    135 H68         15.3510    -9.8330     2.5070 ha         1 UNL       0.000000
    136 H69         14.7830   -13.0700     5.3040 ha         1 UNL       0.000000
    137 H70         11.8930    -9.0140     9.6490 h4         1 UNL       0.000000
    138 H71          6.5440    -4.2330     1.2610 ha         1 UNL       0.000000
    139 C64          5.0080    -5.9030    -0.3260 ca         1 UNL       0.000000
    140 C65          4.4930    -4.5840    -0.3930 ca         1 UNL       0.000000
    141 C66          3.1520    -4.3090    -0.6930 ca         1 UNL       0.000000
    142 C67          2.2210    -5.3320    -0.9440 ca         1 UNL       0.000000
    143 C68          2.7320    -6.6530    -0.9580 ca         1 UNL       0.000000
    144 C69          4.1120    -6.9360    -0.6540 ca         1 UNL       0.000000
    145 N            1.9570    -7.7440    -1.1920 nc         1 UNL       0.000000
    146 N1           4.4440    -8.2520    -0.6310 nc         1 UNL       0.000000
    147 S2           3.0200    -8.9950    -1.0140 ss         1 UNL       0.000000
    148 H72          2.8790    -3.2750    -0.6750 ha         1 UNL       0.000000
    149 H73          5.1050    -3.7250    -0.1700 ha         1 UNL       0.000000
    150 C70          0.7310    -5.1090    -1.1170 ce         1 UNL       0.000000
    151 C71         -0.0170    -3.9730    -0.9820 cd         1 UNL       0.000000
    152 H74          0.1590    -6.0090    -1.3210 ha         1 UNL       0.000000
    153 S3           0.5650    -2.3080    -0.5980 ss         1 UNL       0.000000
    154 C72         -1.1420    -1.7650    -0.6030 c          1 UNL       0.000000
    155 S4          -1.4690    -0.3650    -0.5070 s          1 UNL       0.000000
    156 N2          -2.1000    -2.7880    -0.8490 n          1 UNL       0.000000
    157 C73         -3.5540    -2.5940    -0.8680 c3         1 UNL       0.000000
    158 C74         -4.0940    -2.1940     0.5100 c3         1 UNL       0.000000
    159 H75         -4.0760    -3.5330    -1.1560 h1         1 UNL       0.000000
    160 H76         -3.8220    -1.8210    -1.6200 h1         1 UNL       0.000000
    161 H77         -3.8500    -2.9770     1.2590 hc         1 UNL       0.000000
    162 H78         -5.1990    -2.0850     0.4610 hc         1 UNL       0.000000
    163 H79         -3.6780    -1.2280     0.8560 hc         1 UNL       0.000000
    164 C75         -1.4990    -3.9830    -1.0780 c          1 UNL       0.000000
    165 O           -2.1390    -4.9990    -1.3140 o          1 UNL       0.000000
    166 O1          16.5140   -15.7330    12.3140 o          1 UNL       0.000000
    167 H80         19.2190   -16.9800    12.2810 h1         1 UNL       0.000000
    168 C76         17.1100   -15.0000    11.5410 c          1 UNL       0.000000
    169 C77         19.4540   -15.9160    12.5000 c3         1 UNL       0.000000
    170 N3          18.4990   -14.9550    11.5060 n          1 UNL       0.000000
    171 H81         21.4130   -16.0410    11.5180 hc         1 UNL       0.000000
    172 C78         20.9790   -15.7640    12.5000 c3         1 UNL       0.000000
    173 H82         21.4160   -16.4490    13.2580 hc         1 UNL       0.000000
    174 H83         19.1230   -15.6990    13.5390 h1         1 UNL       0.000000
    175 C79         18.9130   -14.0490    10.5640 c          1 UNL       0.000000
    176 H84         21.2680   -14.7290    12.7840 hc         1 UNL       0.000000
    177 S5          20.2680   -13.7210    10.2240 s          1 UNL       0.000000
    178 S6          10.6530   -12.9520    11.0070 ss         1 UNL       0.000000
    179 N4          10.7100   -11.8680     9.7620 nc         1 UNL       0.000000
    180 N5          12.1880   -13.5620    11.0660 nc         1 UNL       0.000000
    181 C80         11.9960   -11.9740     9.3410 ca         1 UNL       0.000000
    182 C81         12.8090   -12.9010    10.0540 ca         1 UNL       0.000000
    183 C82         12.5570   -11.1750     8.2280 ca         1 UNL       0.000000
    184 C83         14.2500   -13.0750     9.7150 ca         1 UNL       0.000000
    185 C84         16.4340   -14.1370    10.6560 cd         1 UNL       0.000000
    186 C85         14.7200   -12.3410     8.6720 ca         1 UNL       0.000000
    187 C86         13.8620   -11.3630     7.9310 ca         1 UNL       0.000000
    188 H85         15.7440   -12.3900     8.3500 ha         1 UNL       0.000000
    189 H86         14.3470   -10.7270     7.1970 ha         1 UNL       0.000000
    190 S7          17.6190   -13.3120     9.7970 ss         1 UNL       0.000000
    191 C87         15.0820   -14.0020    10.5770 ce         1 UNL       0.000000
    192 H87         14.5100   -14.6100    11.2730 ha         1 UNL       0.000000
@<TRIPOS>BOND
     1     1     2 2   
     2     1     3 1   
     3     2     4 1   
     4     4     5 1   
     5     3     5 2   
     6     3     6 1   
     7     6     7 1   
     8     5     8 1   
     9     7     8 ar  
    10     6     9 1   
    11     6    10 1   
    12    10    11 ar  
    13    11    12 ar  
    14    12    13 ar  
    15    13    14 ar  
    16     9    15 ar  
    17    15    16 ar  
    18    16    17 ar  
    19    17    18 ar  
    20    18    19 ar  
    21    19     9 ar  
    22    14    20 ar  
    23    20    10 ar  
    24    15    21 1   
    25    14    22 1   
    26    20    23 1   
    27    12    24 1   
    28    11    25 1   
    29    16    26 1   
    30    18    27 1   
    31    19    28 1   
    32    13    29 1   
    33    29    30 1   
    34    29    31 1   
    35    29    32 1   
    36    30    33 1   
    37    30    34 1   
    38    30    35 1   
    39    33    36 1   
    40    33    37 1   
    41    33    38 1   
    42    36    39 1   
    43    36    40 1   
    44    36    41 1   
    45    39    42 1   
    46    39    43 1   
    47    39    44 1   
    48    42    45 1   
    49    42    46 1   
    50    42    47 1   
    51    17    48 1   
    52    48    49 1   
    53    48    50 1   
    54    48    51 1   
    55    49    52 1   
    56    49    53 1   
    57    49    54 1   
    58    52    55 1   
    59    52    56 1   
    60    52    57 1   
    61    55    58 1   
    62    55    59 1   
    63    55    60 1   
    64    58    61 1   
    65    58    62 1   
    66    58    63 1   
    67    61    64 1   
    68    61    65 1   
    69    61    66 1   
    70     7    67 ar  
    71    67    68 ar  
    72    68    69 ar  
    73    69    70 ar  
    74    70     8 ar  
    75    67    71 1   
    76    70    72 1   
    77    68    73 1   
    78    69    74 1   
    79    74    75 1   
    80    75    73 2   
    81    73    76 1   
    82    76    77 1   
    83    77    78 2   
    84    75    78 1   
    85    74    79 1   
    86    74    80 1   
    87    80    81 ar  
    88    81    82 ar  
    89    82    83 ar  
    90    83    84 ar  
    91    84    85 ar  
    92    85    80 ar  
    93    79    86 ar  
    94    86    87 ar  
    95    87    88 ar  
    96    88    89 ar  
    97    89    90 ar  
    98    90    79 ar  
    99    88    91 1   
   100    91    92 1   
   101    91    93 1   
   102    91    94 1   
   103    92    95 1   
   104    92    96 1   
   105    92    97 1   
   106    95    98 1   
   107    95    99 1   
   108    95   100 1   
   109    98   101 1   
   110    98   102 1   
   111    98   103 1   
   112   101   104 1   
   113   101   105 1   
   114   101   106 1   
   115   104   107 1   
   116   104   108 1   
   117   104   109 1   
   118    83   110 1   
   119   110   111 1   
   120   110   112 1   
   121   110   113 1   
   122   111   114 1   
   123   111   115 1   
   124   111   116 1   
   125   114   117 1   
   126   114   118 1   
   127   114   119 1   
   128   117   120 1   
   129   117   121 1   
   130   117   122 1   
   131   120   123 1   
   132   120   124 1   
   133   120   125 1   
   134   123   126 1   
   135   123   127 1   
   136   123   128 1   
   137    81   129 1   
   138    82   130 1   
   139    84   131 1   
   140    85   132 1   
   141    90   133 1   
   142    86   134 1   
   143    87   135 1   
   144    89   136 1   
   145    77   137 1   
   146     1   138 1   
   147     2   139 1   
   148   139   140 ar  
   149   140   141 ar  
   150   141   142 ar  
   151   142   143 ar  
   152   143   144 ar  
   153   144   139 ar  
   154   143   145 2   
   155   144   146 2   
   156   145   147 1   
   157   147   146 1   
   158   141   148 1   
   159   140   149 1   
   160   142   150 1   
   161   150   151 2   
   162   150   152 1   
   163   151   153 1   
   164   153   154 1   
   165   154   155 2   
   166   154   156 1   
   167   156   157 1   
   168   157   158 1   
   169   157   159 1   
   170   157   160 1   
   171   158   161 1   
   172   158   162 1   
   173   158   163 1   
   174   156   164 1   
   175   164   151 1   
   176   165   164 2   
   177   174   169 1   
   178   190   175 1   
   179   190   185 1   
   180   176   172 1   
   181   177   175 2   
   182   175   170 1   
   183   173   172 1   
   184   169   170 1   
   185   169   172 1   
   186   169   167 1   
   187   170   168 1   
   188   178   180 1   
   189   178   179 1   
   190   168   166 2   
   191   168   185 1   
   192   180   182 2   
   193   172   171 1   
   194   182   184 ar  
   195   182   181 ar  
   196   184   186 ar  
   197   179   181 2   
   198   188   186 1   
   199   186   187 ar  
   200   181   183 ar  
   201   187   189 1   
   202   187   183 ar  
   203    78   183 1   
   204   191   185 2   
   205   191   184 1   
   206   191   192 1   
@<TRIPOS>SUBSTRUCTURE
     1 UNL         1 TEMP              0 ****  ****    0 ROOT
