@<TRIPOS>MOLECULE
*****
 186 200 0 0 0
SMALL
GASTEIGER

@<TRIPOS>ATOM
      1 C          -1.4896   -2.6831    0.2148 C.ar    1  UNL1       -0.0611
      2 C          -0.6277   -1.6745   -0.2410 C.ar    1  UNL1       -0.0611
      3 C           0.7592   -1.9057   -0.3513 C.ar    1  UNL1       -0.0503
      4 H          -1.0433   -0.7127   -0.4816 H       1  UNL1        0.0618
      5 C           1.2520   -3.1623   -0.0066 C.ar    1  UNL1        0.0300
      6 H           1.4268   -1.1204   -0.6731 H       1  UNL1        0.0625
      7 C           0.3737   -4.1689    0.3597 C.ar    1  UNL1       -0.0045
      8 C          -0.9883   -3.9363    0.5098 C.ar    1  UNL1       -0.0533
      9 H          -1.6608   -4.6915    0.8762 H       1  UNL1        0.0624
     10 H          -2.5483   -2.5119    0.3427 H       1  UNL1        0.0618
     11 C           1.0690   -5.4210    0.5882 C.2     1  UNL1        0.0214
     12 C           2.5267   -5.0740    0.5294 C.2     1  UNL1        0.0329
     13 C           2.6329   -3.6668    0.0639 C.2     1  UNL1        0.1944
     14 O           3.6501   -3.0197   -0.1513 O.2     1  UNL1       -0.2866
     15 C           0.4763   -6.6885    0.6152 C.2     1  UNL1        0.1365
     16 C          -0.8672   -6.8542    0.1849 C.1     1  UNL1        0.1108
     17 C           1.0519   -8.0036    0.8964 C.1     1  UNL1        0.1108
     18 N          -1.9592   -6.9755   -0.1666 N.1     1  UNL1       -0.1901
     19 N           1.5047   -9.0477    1.1185 N.1     1  UNL1       -0.1901
     20 C           3.3561   -6.0849    0.7003 C.2     1  UNL1       -0.0365
     21 C           4.6703   -6.6297    0.6495 C.ar    1  UNL1        0.0145
     22 H           2.8410   -6.7909    1.2007 H       1  UNL1        0.0636
     23 S           6.0978   -5.7615    0.5044 S.2     1  UNL1       -0.0879
     24 C           7.0403   -6.9336    1.2536 C.ar    1  UNL1        0.0322
     25 C           6.2378   -8.0744    1.3610 C.ar    1  UNL1        0.0279
     26 C           4.8708   -7.9426    1.0910 C.ar    1  UNL1       -0.0331
     27 H           4.0259   -8.6065    1.4287 H       1  UNL1        0.0640
     28 C           8.2877   -6.9324    2.0985 C.ar    1  UNL1        0.0009
     29 S           7.0594   -9.2140    2.2223 S.2     1  UNL1       -0.0873
     30 C           8.4280   -8.2674    2.5911 C.ar    1  UNL1        0.0260
     31 C           9.3319   -5.8217    2.9241 C.3     1  UNL1        0.0732
     32 C          10.2610   -7.1823    3.3664 C.ar    1  UNL1       -0.0193
     33 C           9.7359   -8.5094    3.2591 C.ar    1  UNL1       -0.0059
     34 C          10.3117   -4.4076    3.3894 C.ar    1  UNL1       -0.0281
     35 C           8.0303   -4.8232    3.1618 C.ar    1  UNL1       -0.0281
     36 C           7.9853   -3.5657    2.4320 C.ar    1  UNL1       -0.0568
     37 C           6.9274   -2.6419    2.4637 C.ar    1  UNL1       -0.0583
     38 C           5.7549   -2.8858    3.1802 C.ar    1  UNL1       -0.0473
     39 C           5.8078   -4.0150    4.0560 C.ar    1  UNL1       -0.0583
     40 C          11.3707   -3.7528    2.6237 C.ar    1  UNL1       -0.0568
     41 C          11.9137   -2.3982    2.8904 C.ar    1  UNL1       -0.0583
     42 C          11.4909   -1.5260    3.9352 C.ar    1  UNL1       -0.0473
     43 C          10.5777   -2.1615    4.7916 C.ar    1  UNL1       -0.0583
     44 C          10.0282   -3.5130    4.5648 C.ar    1  UNL1       -0.0568
     45 C           6.9222   -4.9518    4.0624 C.ar    1  UNL1       -0.0568
     46 H          11.7782   -4.2156    1.7424 H       1  UNL1        0.0621
     47 H           4.9625   -4.2193    4.6932 H       1  UNL1        0.0620
     48 H           6.8885   -5.7913    4.7426 H       1  UNL1        0.0621
     49 H           7.0116   -1.7387    1.8638 H       1  UNL1        0.0620
     50 H           8.8116   -3.2475    1.8077 H       1  UNL1        0.0621
     51 H          12.6578   -1.9636    2.2330 H       1  UNL1        0.0620
     52 H          10.2520   -1.5311    5.6187 H       1  UNL1        0.0620
     53 H           9.2845   -3.7515    5.3184 H       1  UNL1        0.0621
     54 C           4.4685   -2.0344    2.7820 C.3     1  UNL1       -0.0277
     55 C           3.8488   -0.8493    3.5965 C.3     1  UNL1       -0.0491
     56 H           3.6616   -2.7508    2.5226 H       1  UNL1        0.0313
     57 H           4.7337   -1.5543    1.8168 H       1  UNL1        0.0313
     58 C           2.9670    0.2662    2.8575 C.3     1  UNL1       -0.0528
     59 H           4.7275   -0.2745    3.9446 H       1  UNL1        0.0268
     60 H           3.2978   -1.2206    4.4845 H       1  UNL1        0.0268
     61 C           1.4712    0.0684    2.4207 C.3     1  UNL1       -0.0533
     62 H           3.5152    0.6824    1.9775 H       1  UNL1        0.0265
     63 H           2.9284    1.0922    3.5942 H       1  UNL1        0.0265
     64 C           0.6472    1.4026    2.4868 C.3     1  UNL1       -0.0559
     65 H           1.4662   -0.2916    1.3871 H       1  UNL1        0.0265
     66 H           0.9441   -0.6608    3.0682 H       1  UNL1        0.0265
     67 C          -0.7441    1.3546    1.8245 C.3     1  UNL1       -0.0653
     68 H           1.1926    2.2428    2.0061 H       1  UNL1        0.0263
     69 H           0.5001    1.6590    3.5599 H       1  UNL1        0.0263
     70 H          -0.6478    1.2794    0.7212 H       1  UNL1        0.0230
     71 H          -1.2979    2.3014    2.0317 H       1  UNL1        0.0230
     72 H          -1.3633    0.5141    2.2003 H       1  UNL1        0.0230
     73 C          11.9183    0.0623    4.0514 C.3     1  UNL1       -0.0277
     74 C          12.7369    0.6876    5.2683 C.3     1  UNL1       -0.0491
     75 H          11.0062    0.7051    3.9690 H       1  UNL1        0.0313
     76 H          12.5282    0.3545    3.1607 H       1  UNL1        0.0313
     77 C          13.1968    2.2197    5.1712 C.3     1  UNL1       -0.0528
     78 H          13.6824    0.1149    5.2911 H       1  UNL1        0.0268
     79 H          12.2201    0.5504    6.2411 H       1  UNL1        0.0268
     80 C          12.2123    3.3041    5.7058 C.3     1  UNL1       -0.0533
     81 H          13.4851    2.4625    4.1245 H       1  UNL1        0.0265
     82 H          14.1159    2.3527    5.7887 H       1  UNL1        0.0265
     83 C          12.6936    4.7811    5.5313 C.3     1  UNL1       -0.0559
     84 H          12.0034    3.1383    6.7874 H       1  UNL1        0.0265
     85 H          11.2626    3.2060    5.1474 H       1  UNL1        0.0265
     86 C          13.8176    5.2414    6.4737 C.3     1  UNL1       -0.0653
     87 H          11.8355    5.4583    5.7451 H       1  UNL1        0.0263
     88 H          12.9995    4.9567    4.4777 H       1  UNL1        0.0263
     89 H          13.4865    5.1818    7.5334 H       1  UNL1        0.0230
     90 H          14.0586    6.3116    6.2686 H       1  UNL1        0.0230
     91 H          14.7453    4.6519    6.3404 H       1  UNL1        0.0230
     92 C          11.6735   -7.1532    3.6164 C.ar    1  UNL1       -0.0479
     93 C          12.5242   -8.3186    3.6522 C.ar    1  UNL1       -0.0059
     94 C          12.0204   -9.6341    3.6624 C.ar    1  UNL1       -0.0193
     95 C          10.5566   -9.7538    3.5692 C.ar    1  UNL1       -0.0479
     96 H          12.1551   -6.2120    3.6487 H       1  UNL1        0.0627
     97 H          10.2496  -10.8185    3.4987 H       1  UNL1        0.0627
     98 C          14.0163   -8.4039    3.6685 C.ar    1  UNL1        0.0260
     99 C          13.2140  -10.7644    3.3989 C.3     1  UNL1        0.0732
    100 C          14.4272   -9.7187    3.6191 C.ar    1  UNL1        0.0009
    101 S          15.3777   -7.3536    3.8954 S.2     1  UNL1       -0.0873
    102 C          16.5081   -8.6089    4.1699 C.ar    1  UNL1        0.0279
    103 C          15.8628   -9.8074    4.0322 C.ar    1  UNL1        0.0322
    104 C          14.1768  -11.9718    3.6975 C.ar    1  UNL1       -0.0281
    105 C          12.3773  -11.5521    2.1841 C.ar    1  UNL1       -0.0281
    106 C          11.4023  -10.9811    1.2732 C.ar    1  UNL1       -0.0568
    107 C          10.4024  -11.7893    0.6292 C.ar    1  UNL1       -0.0583
    108 C          10.4084  -13.1969    0.7570 C.ar    1  UNL1       -0.0473
    109 C          11.4351  -13.7610    1.4741 C.ar    1  UNL1       -0.0583
    110 C          12.3308  -12.9979    2.1690 C.ar    1  UNL1       -0.0568
    111 C          15.1102  -12.2611    2.6378 C.ar    1  UNL1       -0.0568
    112 C          16.0537  -13.2838    2.7150 C.ar    1  UNL1       -0.0583
    113 C          16.1243  -14.1104    3.8431 C.ar    1  UNL1       -0.0473
    114 C          15.1711  -13.8823    4.8821 C.ar    1  UNL1       -0.0583
    115 C          14.2041  -12.8298    4.8131 C.ar    1  UNL1       -0.0568
    116 C          17.4008  -14.9630    4.0452 C.3     1  UNL1       -0.0277
    117 C          17.7336  -16.4395    3.6454 C.3     1  UNL1       -0.0491
    118 H          17.6221  -14.8809    5.1279 H       1  UNL1        0.0313
    119 H          18.1798  -14.3828    3.5083 H       1  UNL1        0.0313
    120 C          19.2430  -16.7147    4.0263 C.3     1  UNL1       -0.0528
    121 H          17.5999  -16.5986    2.5535 H       1  UNL1        0.0268
    122 H          17.0741  -17.1331    4.2045 H       1  UNL1        0.0268
    123 C          19.8264  -18.1520    3.8696 C.3     1  UNL1       -0.0533
    124 H          19.3665  -16.4503    5.0986 H       1  UNL1        0.0265
    125 H          19.8806  -16.0305    3.4206 H       1  UNL1        0.0265
    126 C          21.3130  -18.2179    4.3437 C.3     1  UNL1       -0.0559
    127 H          19.7748  -18.4756    2.8087 H       1  UNL1        0.0265
    128 H          19.2324  -18.8514    4.4936 H       1  UNL1        0.0265
    129 C          21.9404  -19.6193    4.2915 C.3     1  UNL1       -0.0653
    130 H          21.3837  -17.8783    5.4001 H       1  UNL1        0.0263
    131 H          21.9412  -17.5468    3.7169 H       1  UNL1        0.0263
    132 H          21.3908  -20.3271    4.9471 H       1  UNL1        0.0230
    133 H          22.9923  -19.5721    4.6598 H       1  UNL1        0.0230
    134 H          21.9643  -20.0157    3.2555 H       1  UNL1        0.0230
    135 C           9.3875  -14.2222    0.2529 C.3     1  UNL1       -0.0277
    136 C           7.9315  -13.8072   -0.0127 C.3     1  UNL1       -0.0491
    137 H           9.2844  -14.9817    1.0670 H       1  UNL1        0.0313
    138 H           9.8239  -14.7586   -0.6155 H       1  UNL1        0.0313
    139 C           7.0943  -15.0688   -0.3728 C.3     1  UNL1       -0.0528
    140 H           7.9042  -13.0796   -0.8466 H       1  UNL1        0.0268
    141 H           7.5008  -13.3414    0.9023 H       1  UNL1        0.0268
    142 C           5.6397  -14.7370   -0.7429 C.3     1  UNL1       -0.0533
    143 H           7.0929  -15.7834    0.4840 H       1  UNL1        0.0265
    144 H           7.5681  -15.5766   -1.2411 H       1  UNL1        0.0265
    145 C           4.8556  -15.9904   -1.1792 C.3     1  UNL1       -0.0559
    146 H           5.6499  -14.0160   -1.5874 H       1  UNL1        0.0265
    147 H           5.1299  -14.2733    0.1290 H       1  UNL1        0.0265
    148 C           3.4313  -15.6351   -1.6108 C.3     1  UNL1       -0.0653
    149 H           4.8056  -16.7225   -0.3433 H       1  UNL1        0.0263
    150 H           5.3675  -16.4735   -2.0405 H       1  UNL1        0.0263
    151 H           2.8699  -15.1768   -0.7695 H       1  UNL1        0.0230
    152 H           2.8937  -16.5520   -1.9358 H       1  UNL1        0.0230
    153 H           3.4521  -14.9236   -2.4642 H       1  UNL1        0.0230
    154 H          11.2802   -9.9083    1.1731 H       1  UNL1        0.0621
    155 H           9.6016  -11.3116    0.0778 H       1  UNL1        0.0620
    156 H          11.5006  -14.8370    1.5901 H       1  UNL1        0.0620
    157 H          12.9399  -13.6519    2.7618 H       1  UNL1        0.0621
    158 H          13.5012  -12.6746    5.6201 H       1  UNL1        0.0621
    159 H          15.1324  -11.6243    1.7568 H       1  UNL1        0.0621
    160 H          16.7798  -13.3655    1.9145 H       1  UNL1        0.0620
    161 H          15.2063  -14.4880    5.7751 H       1  UNL1        0.0620
    162 S          17.0566  -10.9952    4.4955 S.2     1  UNL1       -0.0879
    163 C          18.3816   -9.9735    4.8178 C.ar    1  UNL1        0.0145
    164 C          17.8866   -8.6664    4.5551 C.ar    1  UNL1       -0.0331
    165 H          18.5121   -7.7916    4.6684 H       1  UNL1        0.0640
    166 C          19.8333  -10.2067    5.2764 C.2     1  UNL1       -0.0365
    167 C          20.7090  -11.2646    5.4931 C.2     1  UNL1        0.0329
    168 H          20.2872   -9.2506    5.4099 H       1  UNL1        0.0636
    169 C          20.5269  -12.7256    5.3043 C.2     1  UNL1        0.1944
    170 C          21.8317  -13.4221    5.4310 C.ar    1  UNL1        0.0300
    171 C          22.7962  -12.4920    5.7389 C.ar    1  UNL1       -0.0045
    172 C          22.2015  -11.1228    5.7726 C.2     1  UNL1        0.0214
    173 O          19.4686  -13.2749    5.0959 O.2     1  UNL1       -0.2866
    174 C          22.9485   -9.9957    5.9537 C.2     1  UNL1        0.1365
    175 C          22.4424   -8.7050    6.3283 C.1     1  UNL1        0.1108
    176 C          24.3687  -10.0213    5.6973 C.1     1  UNL1        0.1108
    177 N          22.0764   -7.6494    6.6276 N.1     1  UNL1       -0.1901
    178 N          25.5052  -10.0804    5.4824 N.1     1  UNL1       -0.1901
    179 C          24.1052  -12.9148    6.0714 C.ar    1  UNL1       -0.0533
    180 C          24.4505  -14.2607    5.9879 C.ar    1  UNL1       -0.0611
    181 C          23.4961  -15.1972    5.5871 C.ar    1  UNL1       -0.0611
    182 C          22.1728  -14.7861    5.3244 C.ar    1  UNL1       -0.0503
    183 H          24.8710  -12.2547    6.4276 H       1  UNL1        0.0624
    184 H          25.4596  -14.5694    6.2445 H       1  UNL1        0.0618
    185 H          23.7875  -16.2393    5.5171 H       1  UNL1        0.0618
    186 H          21.4478  -15.5249    5.0621 H       1  UNL1        0.0625
@<TRIPOS>BOND
     1     1     2   ar
     2     2     3   ar
     3     2     4    1
     4     3     5   ar
     5     3     6    1
     6     5     7   ar
     7     7     8   ar
     8     8     1   ar
     9     8     9    1
    10     1    10    1
    11     7    11    1
    12    11    12    1
    13    12    13    1
    14    13     5    1
    15    13    14    2
    16    11    15    2
    17    15    16    1
    18    15    17    1
    19    18    16    3
    20    19    17    3
    21    12    20    2
    22    20    21    1
    23    20    22    1
    24    21    23   ar
    25    23    24   ar
    26    24    25   ar
    27    21    26   ar
    28    26    25   ar
    29    26    27    1
    30    24    28   ar
    31    25    29   ar
    32    29    30   ar
    33    28    30   ar
    34    28    31    1
    35    31    32    1
    36    30    33    1
    37    32    33   ar
    38    31    34    1
    39    31    35    1
    40    35    36   ar
    41    36    37   ar
    42    37    38   ar
    43    38    39   ar
    44    34    40   ar
    45    40    41   ar
    46    41    42   ar
    47    42    43   ar
    48    43    44   ar
    49    44    34   ar
    50    39    45   ar
    51    45    35   ar
    52    40    46    1
    53    39    47    1
    54    45    48    1
    55    37    49    1
    56    36    50    1
    57    41    51    1
    58    43    52    1
    59    44    53    1
    60    38    54    1
    61    54    55    1
    62    54    56    1
    63    54    57    1
    64    55    58    1
    65    55    59    1
    66    55    60    1
    67    58    61    1
    68    58    62    1
    69    58    63    1
    70    61    64    1
    71    61    65    1
    72    61    66    1
    73    64    67    1
    74    64    68    1
    75    64    69    1
    76    67    70    1
    77    67    71    1
    78    67    72    1
    79    42    73    1
    80    73    74    1
    81    73    75    1
    82    73    76    1
    83    74    77    1
    84    74    78    1
    85    74    79    1
    86    77    80    1
    87    77    81    1
    88    77    82    1
    89    80    83    1
    90    80    84    1
    91    80    85    1
    92    83    86    1
    93    83    87    1
    94    83    88    1
    95    86    89    1
    96    86    90    1
    97    86    91    1
    98    32    92   ar
    99    92    93   ar
   100    93    94   ar
   101    94    95   ar
   102    95    33   ar
   103    92    96    1
   104    95    97    1
   105    93    98    1
   106    94    99    1
   107    99   100    1
   108   100    98   ar
   109    98   101   ar
   110   101   102   ar
   111   102   103   ar
   112   100   103   ar
   113    99   104    1
   114    99   105    1
   115   105   106   ar
   116   106   107   ar
   117   107   108   ar
   118   108   109   ar
   119   109   110   ar
   120   110   105   ar
   121   104   111   ar
   122   111   112   ar
   123   112   113   ar
   124   113   114   ar
   125   114   115   ar
   126   115   104   ar
   127   113   116    1
   128   116   117    1
   129   116   118    1
   130   116   119    1
   131   117   120    1
   132   117   121    1
   133   117   122    1
   134   120   123    1
   135   120   124    1
   136   120   125    1
   137   123   126    1
   138   123   127    1
   139   123   128    1
   140   126   129    1
   141   126   130    1
   142   126   131    1
   143   129   132    1
   144   129   133    1
   145   129   134    1
   146   108   135    1
   147   135   136    1
   148   135   137    1
   149   135   138    1
   150   136   139    1
   151   136   140    1
   152   136   141    1
   153   139   142    1
   154   139   143    1
   155   139   144    1
   156   142   145    1
   157   142   146    1
   158   142   147    1
   159   145   148    1
   160   145   149    1
   161   145   150    1
   162   148   151    1
   163   148   152    1
   164   148   153    1
   165   106   154    1
   166   107   155    1
   167   109   156    1
   168   110   157    1
   169   115   158    1
   170   111   159    1
   171   112   160    1
   172   114   161    1
   173   103   162   ar
   174   162   163   ar
   175   163   164   ar
   176   164   102   ar
   177   164   165    1
   178   163   166    1
   179   166   167    2
   180   166   168    1
   181   167   169    1
   182   169   170    1
   183   170   171   ar
   184   171   172    1
   185   172   167    1
   186   173   169    2
   187   172   174    2
   188   174   175    1
   189   174   176    1
   190   177   175    3
   191   178   176    3
   192   171   179   ar
   193   179   180   ar
   194   180   181   ar
   195   181   182   ar
   196   182   170   ar
   197   179   183    1
   198   180   184    1
   199   181   185    1
   200   182   186    1
