@<TRIPOS>MOLECULE
*****
  174   188     1     0     0
SMALL
dc


@<TRIPOS>ATOM
      1 C           -0.5170    -2.9620    -0.4150 ca         1 UNL       0.000000
      2 C1           0.4070    -1.9560    -0.7290 ca         1 UNL       0.000000
      3 C2           1.7740    -2.2360    -0.7610 ca         1 UNL       0.000000
      4 H            0.0520    -0.9450    -0.9150 ha         1 UNL       0.000000
      5 C3           2.1740    -3.5350    -0.4870 ca         1 UNL       0.000000
      6 H1           2.5020    -1.4520    -0.9510 ha         1 UNL       0.000000
      7 C4           1.2640    -4.5540    -0.1660 ca         1 UNL       0.000000
      8 C5          -0.0930    -4.2620    -0.1230 ca         1 UNL       0.000000
      9 H2          -0.8430    -4.9880     0.1710 ha         1 UNL       0.000000
     10 H3          -1.5790    -2.7260    -0.3670 ha         1 UNL       0.000000
     11 C6           2.0170    -5.7570     0.2540 cc         1 UNL       0.000000
     12 C7           3.4540    -5.4270     0.1770 cc         1 UNL       0.000000
     13 C8           3.5630    -4.0160    -0.3460 c          1 UNL       0.000000
     14 O            4.5580    -3.3440    -0.5230 o          1 UNL       0.000000
     15 C9           1.5100    -6.9820     0.5360 cf         1 UNL       0.000000
     16 C10          0.1890    -7.3610     0.1800 ch         1 UNL       0.000000
     17 C11          2.2610    -8.0050     1.1870 ch         1 UNL       0.000000
     18 N           -0.8690    -7.6970    -0.1650 n1         1 UNL       0.000000
     19 N1           2.8390    -8.8090     1.7900 n1         1 UNL       0.000000
     20 C12          4.4110    -5.8270     1.0190 cf         1 UNL       0.000000
     21 C13          5.5980    -6.4510     0.5300 cd         1 UNL       0.000000
     22 H4           4.1060    -6.3130     1.9440 ha         1 UNL       0.000000
     23 S            7.0960    -5.6220     0.4120 ss         1 UNL       0.000000
     24 C14          7.7290    -6.9070     1.4060 cd         1 UNL       0.000000
     25 C15          7.0280    -8.0720     1.1880 cc         1 UNL       0.000000
     26 C16          5.8300    -7.8220     0.4440 cc         1 UNL       0.000000
     27 H5           5.0750    -8.5860     0.3120 ha         1 UNL       0.000000
     28 C17          8.6010    -7.0640     2.5050 cd         1 UNL       0.000000
     29 S1           7.6600    -9.4310     2.1070 ss         1 UNL       0.000000
     30 C18          8.7040    -8.3820     2.8620 cc         1 UNL       0.000000
     31 C19          9.2360    -6.0970     3.4780 c3         1 UNL       0.000000
     32 C20         10.2520    -7.2120     4.0240 ca         1 UNL       0.000000
     33 C21          9.7840    -8.5600     3.8000 ca         1 UNL       0.000000
     34 C22          9.9700    -4.8720     2.8820 cc         1 UNL       0.000000
     35 C23          8.1180    -5.5950     4.4680 cc         1 UNL       0.000000
     36 C24          6.3010    -3.9330     4.7800 cc         1 UNL       0.000000
     37 C25          7.1780    -3.9500     5.8530 cd         1 UNL       0.000000
     38 C26         10.4580    -4.6240     1.6120 cd         1 UNL       0.000000
     39 C27         11.0750    -3.3330     1.4890 cd         1 UNL       0.000000
     40 C28         11.0620    -2.6100     2.6640 cc         1 UNL       0.000000
     41 H6          10.3670    -5.3270     0.7940 ha         1 UNL       0.000000
     42 H7          11.4870    -2.9500     0.5650 ha         1 UNL       0.000000
     43 C29          5.5180    -2.8000     4.1190 c3         1 UNL       0.000000
     44 C30          4.8080    -1.7830     5.0200 c3         1 UNL       0.000000
     45 H8           4.8120    -3.1660     3.3620 hc         1 UNL       0.000000
     46 H9           6.2950    -2.2590     3.5630 hc         1 UNL       0.000000
     47 C31          4.2220    -0.5580     4.2690 c3         1 UNL       0.000000
     48 H10          5.5320    -1.3930     5.7450 hc         1 UNL       0.000000
     49 H11          4.0080    -2.2650     5.5920 hc         1 UNL       0.000000
     50 C32          2.8910    -0.8130     3.5440 c3         1 UNL       0.000000
     51 H12          4.9530    -0.1510     3.5580 hc         1 UNL       0.000000
     52 H13          4.0530     0.2320     5.0140 hc         1 UNL       0.000000
     53 C33          2.2050     0.5090     3.1640 c3         1 UNL       0.000000
     54 H14          3.0630    -1.4130     2.6430 hc         1 UNL       0.000000
     55 H15          2.2190    -1.3850     4.1950 hc         1 UNL       0.000000
     56 C34          0.8530     0.2980     2.4990 c3         1 UNL       0.000000
     57 H16          2.8480     1.0870     2.4900 hc         1 UNL       0.000000
     58 H17          2.0530     1.1180     4.0640 hc         1 UNL       0.000000
     59 H18          0.9660    -0.2190     1.5440 hc         1 UNL       0.000000
     60 H19          0.3700     1.2620     2.3030 hc         1 UNL       0.000000
     61 H20          0.1830    -0.2890     3.1350 hc         1 UNL       0.000000
     62 C35         11.5110    -1.1890     2.9190 c3         1 UNL       0.000000
     63 C36         12.3790    -1.0000     4.1770 c3         1 UNL       0.000000
     64 H21         10.6160    -0.5600     2.9870 hc         1 UNL       0.000000
     65 H22         12.0760    -0.8410     2.0460 hc         1 UNL       0.000000
     66 C37         12.8700     0.4460     4.3620 c3         1 UNL       0.000000
     67 H23         13.2550    -1.6560     4.1050 hc         1 UNL       0.000000
     68 H24         11.8360    -1.3030     5.0800 hc         1 UNL       0.000000
     69 C38         11.7740     1.4010     4.8530 c3         1 UNL       0.000000
     70 H25         13.2970     0.8130     3.4220 hc         1 UNL       0.000000
     71 H26         13.6820     0.4360     5.0990 hc         1 UNL       0.000000
     72 C39         12.2100     2.8710     4.8750 c3         1 UNL       0.000000
     73 H27         11.4470     1.1020     5.8570 hc         1 UNL       0.000000
     74 H28         10.8980     1.3250     4.2010 hc         1 UNL       0.000000
     75 C40         13.2850     3.1830     5.9040 c3         1 UNL       0.000000
     76 H29         11.3320     3.4900     5.0970 hc         1 UNL       0.000000
     77 H30         12.5600     3.1690     3.8800 hc         1 UNL       0.000000
     78 H31         12.9560     2.9120     6.9120 hc         1 UNL       0.000000
     79 H32         13.5050     4.2570     5.9000 hc         1 UNL       0.000000
     80 H33         14.2170     2.6540     5.6870 hc         1 UNL       0.000000
     81 C41         11.6260    -7.0290     4.1300 ca         1 UNL       0.000000
     82 C42         12.4160    -8.1490     3.8510 ca         1 UNL       0.000000
     83 C43         11.9610    -9.5110     3.7520 ca         1 UNL       0.000000
     84 C44         10.5850    -9.7200     3.8560 ca         1 UNL       0.000000
     85 H34         12.0720    -6.0390     4.1200 ha         1 UNL       0.000000
     86 H35         10.1550   -10.6830     3.6000 ha         1 UNL       0.000000
     87 C45         13.7480    -8.1360     3.3500 cd         1 UNL       0.000000
     88 C46         12.9660   -10.4020     2.8330 c3         1 UNL       0.000000
     89 C47         14.1380    -9.3720     2.8910 cc         1 UNL       0.000000
     90 S2          14.8830    -6.9250     3.2570 ss         1 UNL       0.000000
     91 C48         16.0390    -8.2030     3.5360 cd         1 UNL       0.000000
     92 C49         15.5520    -9.4590     3.2280 cc         1 UNL       0.000000
     93 C50         13.5290   -11.7790     3.1790 cc         1 UNL       0.000000
     94 C51         14.0750   -12.6370     2.2240 cd         1 UNL       0.000000
     95 C52         14.7750   -13.7340     2.7630 cd         1 UNL       0.000000
     96 C53         14.8310   -13.6730     4.1360 cc         1 UNL       0.000000
     97 S3          13.8010   -12.4130     4.7460 ss         1 UNL       0.000000
     98 C54         15.7680   -14.4230     5.0490 c3         1 UNL       0.000000
     99 C55         16.2550   -15.7910     4.5290 c3         1 UNL       0.000000
    100 H36         15.3350   -14.5430     6.0470 hc         1 UNL       0.000000
    101 H37         16.6310   -13.7670     5.1660 hc         1 UNL       0.000000
    102 C56         17.7590   -16.0010     4.7730 c3         1 UNL       0.000000
    103 H38         16.0710   -15.9250     3.4590 hc         1 UNL       0.000000
    104 H39         15.6870   -16.5810     5.0330 hc         1 UNL       0.000000
    105 C57         18.2510   -17.3510     4.2370 c3         1 UNL       0.000000
    106 H40         17.9710   -15.9310     5.8460 hc         1 UNL       0.000000
    107 H41         18.3210   -15.2000     4.2760 hc         1 UNL       0.000000
    108 C58         19.7580   -17.5230     4.4470 c3         1 UNL       0.000000
    109 H42         18.0260   -17.4270     3.1660 hc         1 UNL       0.000000
    110 H43         17.7130   -18.1640     4.7390 hc         1 UNL       0.000000
    111 C59         20.2520   -18.8730     3.9480 c3         1 UNL       0.000000
    112 H44         20.0000   -17.4270     5.5120 hc         1 UNL       0.000000
    113 H45         20.3000   -16.7300     3.9190 hc         1 UNL       0.000000
    114 H46         19.7550   -19.6940     4.4760 hc         1 UNL       0.000000
    115 H47         21.3300   -18.9680     4.1170 hc         1 UNL       0.000000
    116 H48         20.0660   -18.9900     2.8760 hc         1 UNL       0.000000
    117 C60         10.1460   -11.1090     0.0350 cc         1 UNL       0.000000
    118 C61          8.7950   -11.6670    -0.4000 c3         1 UNL       0.000000
    119 C62          8.6040   -13.2000    -0.5080 c3         1 UNL       0.000000
    120 H49          8.5190   -11.1990    -1.3520 hc         1 UNL       0.000000
    121 H50          8.0600   -11.3170     0.3260 hc         1 UNL       0.000000
    122 C63          7.0870   -13.5760    -0.6850 c3         1 UNL       0.000000
    123 H51          8.9890   -13.6930     0.3930 hc         1 UNL       0.000000
    124 H52          9.1860   -13.5670    -1.3580 hc         1 UNL       0.000000
    125 C64          6.7710   -15.1100    -0.9890 c3         1 UNL       0.000000
    126 H53          6.6830   -12.9690    -1.5000 hc         1 UNL       0.000000
    127 H54          6.5710   -13.2540     0.2350 hc         1 UNL       0.000000
    128 C65          5.1900   -15.4880    -1.1470 c3         1 UNL       0.000000
    129 H55          7.1540   -15.6160    -0.0810 hc         1 UNL       0.000000
    130 H56          7.3950   -15.4410    -1.8210 hc         1 UNL       0.000000
    131 H57         14.0480   -12.4360     1.1580 ha         1 UNL       0.000000
    132 H58         15.3280   -14.4350     2.1510 ha         1 UNL       0.000000
    133 S4          16.8260   -10.6440     3.5450 ss         1 UNL       0.000000
    134 C66         17.7160    -9.5060     4.4800 cc         1 UNL       0.000000
    135 C67         17.3020    -8.2180     4.1710 cd         1 UNL       0.000000
    136 H59         17.7910    -7.3190     4.5320 ha         1 UNL       0.000000
    137 C68         18.8280    -9.7140     5.3710 ce         1 UNL       0.000000
    138 C69         19.8100   -10.6160     5.2470 cd         1 UNL       0.000000
    139 H60         19.0750    -8.7730     5.8440 ha         1 UNL       0.000000
    140 C70         19.6120   -12.0970     5.3450 c          1 UNL       0.000000
    141 C71         20.9600   -12.6930     5.3670 ca         1 UNL       0.000000
    142 C72         21.9410   -11.7020     5.2280 ca         1 UNL       0.000000
    143 C73         21.2750   -10.3720     5.2370 cd         1 UNL       0.000000
    144 O1          18.5890   -12.7020     5.5800 o          1 UNL       0.000000
    145 C74         21.9120    -9.1770     5.1890 ce         1 UNL       0.000000
    146 C75         21.3430    -7.9840     5.7000 cg         1 UNL       0.000000
    147 C76         23.2240    -9.0280     4.6430 cg         1 UNL       0.000000
    148 N2          20.8910    -7.0360     6.2150 n1         1 UNL       0.000000
    149 N3          24.2500    -8.8930     4.1390 n1         1 UNL       0.000000
    150 C77         23.2800   -12.0620     5.3410 ca         1 UNL       0.000000
    151 C78         23.6100   -13.3920     5.6280 ca         1 UNL       0.000000
    152 C79         22.6120   -14.3570     5.8100 ca         1 UNL       0.000000
    153 C80         21.2670   -14.0130     5.6740 ca         1 UNL       0.000000
    154 H61         24.0940   -11.3480     5.2790 ha         1 UNL       0.000000
    155 H62         24.6560   -13.6660     5.7570 ha         1 UNL       0.000000
    156 H63         22.8910   -15.3710     6.0910 ha         1 UNL       0.000000
    157 H64         20.4830   -14.7400     5.8640 ha         1 UNL       0.000000
    158 C81         12.1400   -10.4980     1.4700 cc         1 UNL       0.000000
    159 C82         11.8630    -9.5430     0.5060 cd         1 UNL       0.000000
    160 C83         10.7100    -9.8840    -0.2910 cd         1 UNL       0.000000
    161 H65         10.2550    -9.1990    -0.9980 ha         1 UNL       0.000000
    162 H66         12.3470    -8.5730     0.4690 ha         1 UNL       0.000000
    163 S5          11.1000   -11.8880     1.2070 ss         1 UNL       0.000000
    164 S6          10.3570    -3.5210     3.9030 ss         1 UNL       0.000000
    165 S7           6.4530    -5.4320     3.9700 ss         1 UNL       0.000000
    166 C84          4.2610   -16.4050    -2.1520 c3         1 UNL       0.000000
    167 H67          4.6950   -14.5140    -1.1180 hc         1 UNL       0.000000
    168 H68          5.0330   -16.0060    -0.1940 hc         1 UNL       0.000000
    169 H69          3.9500   -15.9320    -3.1020 hc         1 UNL       0.000000
    170 H70          3.2660   -16.6020    -1.6780 hc         1 UNL       0.000000
    171 H71          4.6090   -17.4200    -2.4010 hc         1 UNL       0.000000
    172 C85          8.2330    -4.9460     5.6910 cd         1 UNL       0.000000
    173 H72          7.2330    -3.1400     6.5680 ha         1 UNL       0.000000
    174 H73          9.1720    -4.9270     6.2400 ha         1 UNL       0.000000
@<TRIPOS>BOND
     1     1     2 ar  
     2     2     3 ar  
     3     2     4 1   
     4     3     5 ar  
     5     3     6 1   
     6     5     7 ar  
     7     7     8 ar  
     8     8     1 ar  
     9     8     9 1   
    10     1    10 1   
    11     7    11 1   
    12    11    12 1   
    13    12    13 1   
    14    13     5 1   
    15    13    14 2   
    16    11    15 2   
    17    15    16 1   
    18    15    17 1   
    19    18    16 3   
    20    19    17 3   
    21    12    20 2   
    22    20    21 1   
    23    20    22 1   
    24    21    23 1   
    25    23    24 1   
    26    24    25 2   
    27    21    26 2   
    28    26    25 1   
    29    26    27 1   
    30    24    28 1   
    31    25    29 1   
    32    29    30 1   
    33    28    30 2   
    34    28    31 1   
    35    31    32 1   
    36    30    33 1   
    37    32    33 ar  
    38    31    34 1   
    39    31    35 1   
    40    36    37 2   
    41    34    38 2   
    42    38    39 1   
    43    39    40 2   
    44    38    41 1   
    45    39    42 1   
    46    36    43 1   
    47    43    44 1   
    48    43    45 1   
    49    43    46 1   
    50    44    47 1   
    51    44    48 1   
    52    44    49 1   
    53    47    50 1   
    54    47    51 1   
    55    47    52 1   
    56    50    53 1   
    57    50    54 1   
    58    50    55 1   
    59    53    56 1   
    60    53    57 1   
    61    53    58 1   
    62    56    59 1   
    63    56    60 1   
    64    56    61 1   
    65    40    62 1   
    66    62    63 1   
    67    62    64 1   
    68    62    65 1   
    69    63    66 1   
    70    63    67 1   
    71    63    68 1   
    72    66    69 1   
    73    66    70 1   
    74    66    71 1   
    75    69    72 1   
    76    69    73 1   
    77    69    74 1   
    78    72    75 1   
    79    72    76 1   
    80    72    77 1   
    81    75    78 1   
    82    75    79 1   
    83    75    80 1   
    84    32    81 ar  
    85    81    82 ar  
    86    82    83 ar  
    87    83    84 ar  
    88    84    33 ar  
    89    81    85 1   
    90    84    86 1   
    91    82    87 1   
    92    83    88 1   
    93    88    89 1   
    94    89    87 2   
    95    87    90 1   
    96    90    91 1   
    97    91    92 2   
    98    89    92 1   
    99    88    93 1   
   100    93    94 2   
   101    94    95 1   
   102    95    96 2   
   103    97    93 1   
   104    96    98 1   
   105    98    99 1   
   106    98   100 1   
   107    98   101 1   
   108    99   102 1   
   109    99   103 1   
   110    99   104 1   
   111   102   105 1   
   112   102   106 1   
   113   102   107 1   
   114   105   108 1   
   115   105   109 1   
   116   105   110 1   
   117   108   111 1   
   118   108   112 1   
   119   108   113 1   
   120   111   114 1   
   121   111   115 1   
   122   111   116 1   
   123   117   118 1   
   124   118   119 1   
   125   118   120 1   
   126   118   121 1   
   127   119   122 1   
   128   119   123 1   
   129   119   124 1   
   130   122   125 1   
   131   122   126 1   
   132   122   127 1   
   133   125   128 1   
   134   125   129 1   
   135   125   130 1   
   136    94   131 1   
   137    95   132 1   
   138    92   133 1   
   139   133   134 1   
   140   134   135 2   
   141   135    91 1   
   142   135   136 1   
   143   134   137 1   
   144   137   138 2   
   145   137   139 1   
   146   138   140 1   
   147   140   141 1   
   148   141   142 ar  
   149   142   143 1   
   150   143   138 1   
   151   144   140 2   
   152   143   145 2   
   153   145   146 1   
   154   145   147 1   
   155   148   146 3   
   156   149   147 3   
   157   142   150 ar  
   158   150   151 ar  
   159   151   152 ar  
   160   152   153 ar  
   161   153   141 ar  
   162   150   154 1   
   163   151   155 1   
   164   152   156 1   
   165   153   157 1   
   166    88   158 1   
   167   158   159 2   
   168   159   160 1   
   169   160   117 2   
   170   160   161 1   
   171   159   162 1   
   172   158   163 1   
   173   117   163 1   
   174    96    97 1   
   175    34   164 1   
   176   164    40 1   
   177    36   165 1   
   178   165    35 1   
   179   128   166 1   
   180   128   167 1   
   181   128   168 1   
   182   166   169 1   
   183   166   170 1   
   184   166   171 1   
   185    35   172 2   
   186   172    37 1   
   187    37   173 1   
   188   172   174 1   
@<TRIPOS>SUBSTRUCTURE
     1 UNL         1 TEMP              0 ****  ****    0 ROOT
