@<TRIPOS>MOLECULE
*****
  377   391     1     0     0
SMALL
dc


@<TRIPOS>ATOM
      1 C            9.0150     0.5260     2.5010 c3         1 UNL       0.000000
      2 C1           8.0640    -0.5760     2.0510 c3         1 UNL       0.000000
      3 C2           6.5930    -0.1430     1.9780 c3         1 UNL       0.000000
      4 C3           5.7150    -1.2520     1.3680 c3         1 UNL       0.000000
      5 C4           4.2400    -0.8670     1.1620 c3         1 UNL       0.000000
      6 C5           3.4790    -1.8720     0.2440 c3         1 UNL       0.000000
      7 C6           2.0030    -1.5640     0.0830 cc         1 UNL       0.000000
      8 C7           0.8800    -2.3600     0.2150 cd         1 UNL       0.000000
      9 S           -0.5780    -1.3910     0.3000 ss         1 UNL       0.000000
     10 C8           0.3030     0.0380     0.0270 cc         1 UNL       0.000000
     11 C9           1.5450    -0.3470    -0.4730 cc         1 UNL       0.000000
     12 C10          7.9890     4.3870     2.5250 c3         1 UNL       0.000000
     13 C11          6.9910     3.3240     2.1040 c3         1 UNL       0.000000
     14 C12          5.5510     3.8220     2.0430 c3         1 UNL       0.000000
     15 C13          4.6070     2.7660     1.4900 c3         1 UNL       0.000000
     16 C14          3.1730     3.2670     1.2920 c3         1 UNL       0.000000
     17 C15          2.4030     2.2480     0.4790 c3         1 UNL       0.000000
     18 C16          0.9310     2.4290     0.2330 cd         1 UNL       0.000000
     19 C17         -0.0550     1.4420     0.1780 cc         1 UNL       0.000000
     20 S1          -1.5990     2.2620     0.3410 ss         1 UNL       0.000000
     21 C18         -0.8450     3.7960     0.0690 cc         1 UNL       0.000000
     22 C19          0.3740     3.4740    -0.5160 cd         1 UNL       0.000000
     23 C20          6.9090     8.2070     2.5380 c3         1 UNL       0.000000
     24 C21          5.8990     7.1590     2.1170 c3         1 UNL       0.000000
     25 C22          4.4590     7.6660     2.0640 c3         1 UNL       0.000000
     26 C23          3.5140     6.6050     1.5060 c3         1 UNL       0.000000
     27 C24          2.0600     7.0530     1.2980 c3         1 UNL       0.000000
     28 C25          1.2770     6.0170     0.5050 c3         1 UNL       0.000000
     29 C26         -0.2060     6.1890     0.2660 cd         1 UNL       0.000000
     30 C27         -1.2060     5.2020     0.2320 cc         1 UNL       0.000000
     31 S2          -2.7400     6.0390     0.3690 ss         1 UNL       0.000000
     32 C28         -1.9690     7.5640     0.0800 cc         1 UNL       0.000000
     33 C29         -0.7540     7.2260    -0.5030 cd         1 UNL       0.000000
     34 C30          5.9670    11.8810     2.5500 c3         1 UNL       0.000000
     35 C31          4.8330    10.8100     2.0700 c3         1 UNL       0.000000
     36 C32          3.3080    11.3200     2.1180 c3         1 UNL       0.000000
     37 C33          2.3690    10.3110     1.5260 c3         1 UNL       0.000000
     38 C34          0.9440    10.8010     1.3000 c3         1 UNL       0.000000
     39 C35          0.1680     9.7760     0.4950 c3         1 UNL       0.000000
     40 C36         -1.3080     9.9540     0.2540 cd         1 UNL       0.000000
     41 C37         -2.3150     8.9750     0.2290 cc         1 UNL       0.000000
     42 S3          -3.8370     9.8270     0.3730 ss         1 UNL       0.000000
     43 C38         -3.0500    11.3440     0.0860 cc         1 UNL       0.000000
     44 C39         -1.8430    11.0020    -0.5060 cd         1 UNL       0.000000
     45 C40          4.7710    15.6940     2.5460 c3         1 UNL       0.000000
     46 C41          3.7630    14.6410     2.1260 c3         1 UNL       0.000000
     47 C42          2.3200    15.1400     2.0620 c3         1 UNL       0.000000
     48 C43          1.3610    14.0900     1.5200 c3         1 UNL       0.000000
     49 C44         -0.0870    14.5660     1.3150 c3         1 UNL       0.000000
     50 C45         -0.8850    13.5450     0.5160 c3         1 UNL       0.000000
     51 C46         -2.3670    13.7290     0.2790 cd         1 UNL       0.000000
     52 C47         -3.3810    12.7540     0.2490 cc         1 UNL       0.000000
     53 S4          -4.9030    13.6030     0.3870 ss         1 UNL       0.000000
     54 C48         -4.1150    15.1150     0.0970 cc         1 UNL       0.000000
     55 C49         -2.9040    14.7710    -0.4900 cd         1 UNL       0.000000
     56 C50          3.6960    19.4690     2.5550 c3         1 UNL       0.000000
     57 C51          2.6840    18.4200     2.1360 c3         1 UNL       0.000000
     58 C52          1.2410    18.9150     2.0700 c3         1 UNL       0.000000
     59 C53          0.2850    17.8610     1.5300 c3         1 UNL       0.000000
     60 C54         -1.1620    18.3340     1.3240 c3         1 UNL       0.000000
     61 C55         -1.9560    17.3110     0.5240 c3         1 UNL       0.000000
     62 C56         -3.4380    17.4970     0.2850 cd         1 UNL       0.000000
     63 C57         -4.4500    16.5220     0.2560 cc         1 UNL       0.000000
     64 S5          -5.9730    17.3670     0.3940 ss         1 UNL       0.000000
     65 C58         -5.1870    18.8790     0.1030 cc         1 UNL       0.000000
     66 C59         -3.9760    18.5360    -0.4840 cd         1 UNL       0.000000
     67 C60          2.6220    23.2330     2.5620 c3         1 UNL       0.000000
     68 C61          1.6100    22.1840     2.1440 c3         1 UNL       0.000000
     69 C62          0.1670    22.6780     2.0770 c3         1 UNL       0.000000
     70 C63         -0.7890    21.6240     1.5380 c3         1 UNL       0.000000
     71 C64         -2.2360    22.0970     1.3310 c3         1 UNL       0.000000
     72 C65         -3.0310    21.0750     0.5310 c3         1 UNL       0.000000
     73 C66         -4.5120    21.2610     0.2920 cd         1 UNL       0.000000
     74 C67         -5.5240    20.2860     0.2620 cc         1 UNL       0.000000
     75 S6          -7.0470    21.1290     0.4000 ss         1 UNL       0.000000
     76 C68         -6.2610    22.6420     0.1100 cc         1 UNL       0.000000
     77 C69         -5.0510    22.3000    -0.4780 cd         1 UNL       0.000000
     78 C70          1.5480    26.9950     2.5690 c3         1 UNL       0.000000
     79 C71          0.5360    25.9460     2.1510 c3         1 UNL       0.000000
     80 C72         -0.9070    26.4400     2.0840 c3         1 UNL       0.000000
     81 C73         -1.8630    25.3870     1.5450 c3         1 UNL       0.000000
     82 C74         -3.3110    25.8600     1.3380 c3         1 UNL       0.000000
     83 C75         -4.1050    24.8380     0.5380 c3         1 UNL       0.000000
     84 C76         -5.5860    25.0230     0.3000 cd         1 UNL       0.000000
     85 C77         -6.5980    24.0490     0.2690 cc         1 UNL       0.000000
     86 S7          -8.1220    24.8920     0.4070 ss         1 UNL       0.000000
     87 C78         -7.3360    26.4050     0.1170 cc         1 UNL       0.000000
     88 C79         -6.1250    26.0620    -0.4700 cd         1 UNL       0.000000
     89 C80          0.4740    30.7570     2.5760 c3         1 UNL       0.000000
     90 C81         -0.5380    29.7080     2.1580 c3         1 UNL       0.000000
     91 C82         -1.9810    30.2030     2.0910 c3         1 UNL       0.000000
     92 C83         -2.9380    29.1490     1.5520 c3         1 UNL       0.000000
     93 C84         -4.3850    29.6220     1.3450 c3         1 UNL       0.000000
     94 C85         -5.1790    28.6000     0.5450 c3         1 UNL       0.000000
     95 C86         -6.6600    28.7860     0.3070 cd         1 UNL       0.000000
     96 C87         -7.6730    27.8120     0.2760 cc         1 UNL       0.000000
     97 S8          -9.1960    28.6560     0.4140 ss         1 UNL       0.000000
     98 C88         -8.4100    30.1690     0.1240 cc         1 UNL       0.000000
     99 C89         -7.1990    29.8260    -0.4630 cd         1 UNL       0.000000
    100 C90         -0.6000    34.5190     2.5830 c3         1 UNL       0.000000
    101 C91         -1.6120    33.4700     2.1640 c3         1 UNL       0.000000
    102 C92         -3.0550    33.9650     2.0980 c3         1 UNL       0.000000
    103 C93         -4.0120    32.9110     1.5590 c3         1 UNL       0.000000
    104 C94         -5.4580    33.3850     1.3520 c3         1 UNL       0.000000
    105 C95         -6.2530    32.3630     0.5520 c3         1 UNL       0.000000
    106 C96         -7.7340    32.5510     0.3130 cd         1 UNL       0.000000
    107 C97         -8.7470    31.5760     0.2820 cc         1 UNL       0.000000
    108 S9         -10.2700    32.4230     0.4200 ss         1 UNL       0.000000
    109 C98         -9.4840    33.9370     0.1290 cc         1 UNL       0.000000
    110 C99         -8.2720    33.5910    -0.4560 cd         1 UNL       0.000000
    111 C100        -1.6750    38.2820     2.5900 c3         1 UNL       0.000000
    112 C101        -2.6870    37.2340     2.1710 c3         1 UNL       0.000000
    113 C102        -4.1300    37.7300     2.1050 c3         1 UNL       0.000000
    114 C103        -5.0870    36.6770     1.5650 c3         1 UNL       0.000000
    115 C104        -6.5330    37.1520     1.3600 c3         1 UNL       0.000000
    116 C105        -7.3260    36.1290     0.5590 c3         1 UNL       0.000000
    117 C106        -8.8060    36.3190     0.3210 cd         1 UNL       0.000000
    118 C107        -9.8200    35.3460     0.2870 cc         1 UNL       0.000000
    119 S10        -11.3420    36.1940     0.4230 ss         1 UNL       0.000000
    120 C108       -10.5560    37.7110     0.1460 cc         1 UNL       0.000000
    121 C109        -9.3400    37.3720    -0.4330 cd         1 UNL       0.000000
    122 C110        -2.7400    42.0380     2.5950 c3         1 UNL       0.000000
    123 C111        -3.7680    41.0060     2.1750 c3         1 UNL       0.000000
    124 C112        -5.2100    41.5110     2.1220 c3         1 UNL       0.000000
    125 C113        -6.1710    40.4640     1.5790 c3         1 UNL       0.000000
    126 C114        -7.6160    40.9540     1.3910 c3         1 UNL       0.000000
    127 C115        -8.4090    39.9370     0.5720 c3         1 UNL       0.000000
    128 C116        -9.8960    40.1040     0.3360 cd         1 UNL       0.000000
    129 C117       -10.9010    39.1200     0.3030 cc         1 UNL       0.000000
    130 S11        -12.4360    39.9580     0.4290 ss         1 UNL       0.000000
    131 C118       -11.6680    41.4800     0.1290 cc         1 UNL       0.000000
    132 C119       -10.4450    41.1370    -0.4410 cd         1 UNL       0.000000
    133 C120        -3.7660    45.8310     2.6120 c3         1 UNL       0.000000
    134 C121        -4.7270    44.7410     2.2150 c3         1 UNL       0.000000
    135 C122        -6.1770    45.1510     2.1830 c3         1 UNL       0.000000
    136 C123        -7.1990    44.1370     1.4860 c3         1 UNL       0.000000
    137 C124        -8.8410    44.6430     1.4570 c3         1 UNL       0.000000
    138 C125        -9.5380    43.6730     0.5540 c3         1 UNL       0.000000
    139 C126       -10.9990    43.8590     0.2910 cd         1 UNL       0.000000
    140 C127       -12.0150    42.8950     0.2640 cc         1 UNL       0.000000
    141 S12        -13.5210    43.7830     0.4060 ss         1 UNL       0.000000
    142 C128       -12.7060    45.2940     0.1130 cc         1 UNL       0.000000
    143 C129       -11.5050    44.9210    -0.4690 cd         1 UNL       0.000000
    144 C130        -4.8920    49.5550     2.6070 c3         1 UNL       0.000000
    145 C131        -5.9120    48.5170     2.1840 c3         1 UNL       0.000000
    146 C132        -7.3450    49.0410     2.1380 c3         1 UNL       0.000000
    147 C133        -8.2990    47.9970     1.5930 c3         1 UNL       0.000000
    148 C134        -9.7400    48.4850     1.4130 c3         1 UNL       0.000000
    149 C135       -10.4960    47.4550     0.5830 c3         1 UNL       0.000000
    150 C136       -11.9570    47.6680     0.3150 cd         1 UNL       0.000000
    151 C137       -12.9950    46.7240     0.2550 cc         1 UNL       0.000000
    152 S13        -14.4890    47.6110     0.3100 ss         1 UNL       0.000000
    153 C138       -13.6670    49.1270     0.0670 cc         1 UNL       0.000000
    154 C139       -12.3860    48.8110    -0.3700 cd         1 UNL       0.000000
    155 C140        -5.9450    53.4130     2.6270 c3         1 UNL       0.000000
    156 C141        -6.9380    52.3570     2.2120 c3         1 UNL       0.000000
    157 C142        -8.3670    52.8530     2.1960 c3         1 UNL       0.000000
    158 C143        -9.3470    51.6610     1.5000 c3         1 UNL       0.000000
    159 C144       -11.0740    52.5930     1.4580 c3         1 UNL       0.000000
    160 C145       -11.7180    51.5570     0.5730 c3         1 UNL       0.000000
    161 C146       -13.2160    51.6170     0.3790 cd         1 UNL       0.000000
    162 C147       -14.0810    50.5160     0.1800 cc         1 UNL       0.000000
    163 S14        -15.7030    51.0390     0.0260 ss         1 UNL       0.000000
    164 C148       -15.2670    52.6920     0.1070 cc         1 UNL       0.000000
    165 C149       -13.9110    52.8610     0.2890 cd         1 UNL       0.000000
    166 H           10.0420     0.1470     2.5350 hc         1 UNL       0.000000
    167 H1           8.7620     0.8980     3.4980 hc         1 UNL       0.000000
    168 H2           9.0080     1.3670     1.8000 hc         1 UNL       0.000000
    169 H3           8.3870    -0.9150     1.0600 hc         1 UNL       0.000000
    170 H4           8.1590    -1.4250     2.7350 hc         1 UNL       0.000000
    171 H5           6.2330     0.1350     2.9770 hc         1 UNL       0.000000
    172 H6           6.5270     0.7410     1.3400 hc         1 UNL       0.000000
    173 H7           6.1390    -1.5090     0.3920 hc         1 UNL       0.000000
    174 H8           5.7700    -2.1430     2.0020 hc         1 UNL       0.000000
    175 H9           3.7400    -0.7560     2.1340 hc         1 UNL       0.000000
    176 H10          4.2260     0.1150     0.6820 hc         1 UNL       0.000000
    177 H11          3.9400    -1.8090    -0.7500 hc         1 UNL       0.000000
    178 H12          3.6230    -2.8890     0.6180 hc         1 UNL       0.000000
    179 H13          0.8240    -3.4340     0.3310 h4         1 UNL       0.000000
    180 H14          2.2380     0.3390    -0.9290 ha         1 UNL       0.000000
    181 H15          8.9990     3.9660     2.5470 hc         1 UNL       0.000000
    182 H16          7.7590     4.7690     3.5240 hc         1 UNL       0.000000
    183 H17          7.9960     5.2210     1.8190 hc         1 UNL       0.000000
    184 H18          7.2870     2.9470     1.1180 hc         1 UNL       0.000000
    185 H19          7.0460     2.5000     2.8180 hc         1 UNL       0.000000
    186 H20          5.2190     4.1330     3.0400 hc         1 UNL       0.000000
    187 H21          5.5150     4.6780     1.3710 hc         1 UNL       0.000000
    188 H22          4.9970     2.4330     0.5200 hc         1 UNL       0.000000
    189 H23          4.5940     1.9030     2.1630 hc         1 UNL       0.000000
    190 H24          2.6930     3.4600     2.2590 hc         1 UNL       0.000000
    191 H25          3.2170     4.1840     0.7120 hc         1 UNL       0.000000
    192 H26          2.8900     2.2020    -0.5020 hc         1 UNL       0.000000
    193 H27          2.5380     1.3160     1.0250 hc         1 UNL       0.000000
    194 H28          0.9860     4.1840    -1.0470 ha         1 UNL       0.000000
    195 H29          7.9150     7.7760     2.5410 hc         1 UNL       0.000000
    196 H30          6.6940     8.5740     3.5450 hc         1 UNL       0.000000
    197 H31          6.9090     9.0490     1.8410 hc         1 UNL       0.000000
    198 H32          6.1920     6.7790     1.1310 hc         1 UNL       0.000000
    199 H33          5.9570     6.3380     2.8360 hc         1 UNL       0.000000
    200 H34          4.1340     7.9570     3.0690 hc         1 UNL       0.000000
    201 H35          4.4290     8.5420     1.4160 hc         1 UNL       0.000000
    202 H36          3.9120     6.2730     0.5390 hc         1 UNL       0.000000
    203 H37          3.5170     5.7590     2.1960 hc         1 UNL       0.000000
    204 H38          1.5830     7.2540     2.2640 hc         1 UNL       0.000000
    205 H39          2.0890     7.9540     0.6960 hc         1 UNL       0.000000
    206 H40          1.7620     5.9580    -0.4770 hc         1 UNL       0.000000
    207 H41          1.4020     5.0930     1.0600 hc         1 UNL       0.000000
    208 H42         -0.1330     7.9260    -1.0390 ha         1 UNL       0.000000
    209 H43          6.9820    11.4800     2.5680 hc         1 UNL       0.000000
    210 H44          5.7210    12.2700     3.5430 hc         1 UNL       0.000000
    211 H45          5.9340    12.7060     1.8330 hc         1 UNL       0.000000
    212 H46          5.2340    10.6020     0.9750 hc         1 UNL       0.000000
    213 H47          4.9080    10.2550     2.9360 hc         1 UNL       0.000000
    214 H48          2.9720    11.6660     3.0980 hc         1 UNL       0.000000
    215 H49          3.4260    12.1510     1.4250 hc         1 UNL       0.000000
    216 H50          2.8010     9.9890     0.5710 hc         1 UNL       0.000000
    217 H51          2.3560     9.4620     2.2080 hc         1 UNL       0.000000
    218 H52          0.4600    11.0100     2.2610 hc         1 UNL       0.000000
    219 H53          1.0060    11.7060     0.7060 hc         1 UNL       0.000000
    220 H54          0.6610     9.7160    -0.4830 hc         1 UNL       0.000000
    221 H55          0.2850     8.8510     1.0490 hc         1 UNL       0.000000
    222 H56         -1.2150    11.7020    -1.0340 ha         1 UNL       0.000000
    223 H57          5.7770    15.2620     2.5670 hc         1 UNL       0.000000
    224 H58          4.5470    16.0750     3.5460 hc         1 UNL       0.000000
    225 H59          4.7870    16.5260     1.8390 hc         1 UNL       0.000000
    226 H60          4.0600    14.2600     1.1420 hc         1 UNL       0.000000
    227 H61          3.8230    13.8240     2.8480 hc         1 UNL       0.000000
    228 H62          1.9930    15.4570     3.0580 hc         1 UNL       0.000000
    229 H63          2.2880    15.9860     1.3800 hc         1 UNL       0.000000
    230 H64          1.7530    13.7480     0.5550 hc         1 UNL       0.000000
    231 H65          1.3520    13.2520     2.2190 hc         1 UNL       0.000000
    232 H66         -0.5590    14.7710     2.2830 hc         1 UNL       0.000000
    233 H67         -0.0440    15.4740     0.7230 hc         1 UNL       0.000000
    234 H68         -0.4000    13.4810    -0.4660 hc         1 UNL       0.000000
    235 H69         -0.7760    12.6200     1.0680 hc         1 UNL       0.000000
    236 H70         -2.2790    15.4680    -1.0250 ha         1 UNL       0.000000
    237 H71          4.7000    19.0320     2.5760 hc         1 UNL       0.000000
    238 H72          3.4740    19.8500     3.5550 hc         1 UNL       0.000000
    239 H73          3.7160    20.3000     1.8470 hc         1 UNL       0.000000
    240 H74          2.9830    18.0370     1.1530 hc         1 UNL       0.000000
    241 H75          2.7410    17.6080     2.8630 hc         1 UNL       0.000000
    242 H76          0.9130    19.2320     3.0650 hc         1 UNL       0.000000
    243 H77          1.2080    19.7580     1.3850 hc         1 UNL       0.000000
    244 H78          0.6770    17.5200     0.5640 hc         1 UNL       0.000000
    245 H79          0.2780    17.0230     2.2300 hc         1 UNL       0.000000
    246 H80         -1.6360    18.5370     2.2910 hc         1 UNL       0.000000
    247 H81         -1.1200    19.2410     0.7310 hc         1 UNL       0.000000
    248 H82         -1.4710    17.2490    -0.4580 hc         1 UNL       0.000000
    249 H83         -1.8430    16.3850     1.0750 hc         1 UNL       0.000000
    250 H84         -3.3520    19.2330    -1.0200 ha         1 UNL       0.000000
    251 H85          3.6260    22.7950     2.5830 hc         1 UNL       0.000000
    252 H86          2.4000    23.6130     3.5620 hc         1 UNL       0.000000
    253 H87          2.6420    24.0640     1.8540 hc         1 UNL       0.000000
    254 H88          1.9090    21.8010     1.1610 hc         1 UNL       0.000000
    255 H89          1.6670    21.3730     2.8710 hc         1 UNL       0.000000
    256 H90         -0.1610    22.9950     3.0720 hc         1 UNL       0.000000
    257 H91          0.1340    23.5210     1.3910 hc         1 UNL       0.000000
    258 H92         -0.3980    21.2830     0.5710 hc         1 UNL       0.000000
    259 H93         -0.7970    20.7870     2.2380 hc         1 UNL       0.000000
    260 H94         -2.7100    22.3000     2.2980 hc         1 UNL       0.000000
    261 H95         -2.1940    23.0040     0.7380 hc         1 UNL       0.000000
    262 H96         -2.5450    21.0120    -0.4510 hc         1 UNL       0.000000
    263 H97         -2.9180    20.1490     1.0830 hc         1 UNL       0.000000
    264 H98         -4.4260    22.9960    -1.0140 ha         1 UNL       0.000000
    265 H99          2.5520    26.5570     2.5900 hc         1 UNL       0.000000
    266 H100         1.3260    27.3750     3.5690 hc         1 UNL       0.000000
    267 H101         1.5680    27.8260     1.8610 hc         1 UNL       0.000000
    268 H102         0.8350    25.5630     1.1680 hc         1 UNL       0.000000
    269 H103         0.5930    25.1350     2.8780 hc         1 UNL       0.000000
    270 H104        -1.2350    26.7570     3.0790 hc         1 UNL       0.000000
    271 H105        -0.9400    27.2830     1.3990 hc         1 UNL       0.000000
    272 H106        -1.4720    25.0450     0.5780 hc         1 UNL       0.000000
    273 H107        -1.8710    24.5500     2.2450 hc         1 UNL       0.000000
    274 H108        -3.7840    26.0620     2.3050 hc         1 UNL       0.000000
    275 H109        -3.2680    26.7660     0.7450 hc         1 UNL       0.000000
    276 H110        -3.6190    24.7740    -0.4440 hc         1 UNL       0.000000
    277 H111        -3.9920    23.9110     1.0900 hc         1 UNL       0.000000
    278 H112        -5.5000    26.7590    -1.0070 ha         1 UNL       0.000000
    279 H113         1.4780    30.3190     2.5970 hc         1 UNL       0.000000
    280 H114         0.2520    31.1370     3.5760 hc         1 UNL       0.000000
    281 H115         0.4940    31.5880     1.8680 hc         1 UNL       0.000000
    282 H116        -0.2390    29.3250     1.1750 hc         1 UNL       0.000000
    283 H117        -0.4810    28.8970     2.8850 hc         1 UNL       0.000000
    284 H118        -2.3090    30.5190     3.0870 hc         1 UNL       0.000000
    285 H119        -2.0140    31.0450     1.4060 hc         1 UNL       0.000000
    286 H120        -2.5460    28.8070     0.5850 hc         1 UNL       0.000000
    287 H121        -2.9450    28.3120     2.2520 hc         1 UNL       0.000000
    288 H122        -4.8580    29.8250     2.3120 hc         1 UNL       0.000000
    289 H123        -4.3420    30.5290     0.7520 hc         1 UNL       0.000000
    290 H124        -4.6940    28.5370    -0.4370 hc         1 UNL       0.000000
    291 H125        -5.0670    27.6740     1.0970 hc         1 UNL       0.000000
    292 H126        -6.5750    30.5220    -1.0000 ha         1 UNL       0.000000
    293 H127         0.4040    34.0820     2.6040 hc         1 UNL       0.000000
    294 H128        -0.8220    34.9000     3.5830 hc         1 UNL       0.000000
    295 H129        -0.5800    35.3500     1.8750 hc         1 UNL       0.000000
    296 H130        -1.3130    33.0870     1.1820 hc         1 UNL       0.000000
    297 H131        -1.5550    32.6600     2.8920 hc         1 UNL       0.000000
    298 H132        -3.3830    34.2810     3.0940 hc         1 UNL       0.000000
    299 H133        -3.0880    34.8080     1.4130 hc         1 UNL       0.000000
    300 H134        -3.6200    32.5700     0.5920 hc         1 UNL       0.000000
    301 H135        -4.0190    32.0740     2.2590 hc         1 UNL       0.000000
    302 H136        -5.9320    33.5870     2.3200 hc         1 UNL       0.000000
    303 H137        -5.4160    34.2920     0.7600 hc         1 UNL       0.000000
    304 H138        -5.7670    32.2990    -0.4300 hc         1 UNL       0.000000
    305 H139        -6.1410    31.4360     1.1040 hc         1 UNL       0.000000
    306 H140        -7.6460    34.2870    -0.9920 ha         1 UNL       0.000000
    307 H141        -0.6710    37.8450     2.6100 hc         1 UNL       0.000000
    308 H142        -1.8970    38.6630     3.5900 hc         1 UNL       0.000000
    309 H143        -1.6560    39.1140     1.8820 hc         1 UNL       0.000000
    310 H144        -2.3890    36.8510     1.1880 hc         1 UNL       0.000000
    311 H145        -2.6310    36.4230     2.8990 hc         1 UNL       0.000000
    312 H146        -4.4580    38.0460     3.1010 hc         1 UNL       0.000000
    313 H147        -4.1640    38.5740     1.4210 hc         1 UNL       0.000000
    314 H148        -4.6950    36.3350     0.5990 hc         1 UNL       0.000000
    315 H149        -5.0940    35.8390     2.2650 hc         1 UNL       0.000000
    316 H150        -7.0070    37.3520     2.3280 hc         1 UNL       0.000000
    317 H151        -6.4930    38.0620     0.7700 hc         1 UNL       0.000000
    318 H152        -6.8400    36.0650    -0.4220 hc         1 UNL       0.000000
    319 H153        -7.2140    35.2030     1.1110 hc         1 UNL       0.000000
    320 H154        -8.7110    38.0710    -0.9610 ha         1 UNL       0.000000
    321 H155        -1.7420    41.5880     2.6150 hc         1 UNL       0.000000
    322 H156        -2.9570    42.4190     3.5970 hc         1 UNL       0.000000
    323 H157        -2.7080    42.8690     1.8880 hc         1 UNL       0.000000
    324 H158        -3.4770    40.6240     1.1880 hc         1 UNL       0.000000
    325 H159        -3.7140    40.1900     2.8970 hc         1 UNL       0.000000
    326 H160        -5.5320    41.8160     3.1230 hc         1 UNL       0.000000
    327 H161        -5.2580    42.3640     1.4480 hc         1 UNL       0.000000
    328 H162        -5.7860    40.1260     0.6080 hc         1 UNL       0.000000
    329 H163        -6.1770    39.6180     2.2710 hc         1 UNL       0.000000
    330 H164        -8.0830    41.1240     2.3670 hc         1 UNL       0.000000
    331 H165        -7.5670    41.8950     0.8470 hc         1 UNL       0.000000
    332 H166        -7.9240    39.8830    -0.4110 hc         1 UNL       0.000000
    333 H167        -8.2840    39.0020     1.1100 hc         1 UNL       0.000000
    334 H168        -9.8190    41.8330    -0.9770 ha         1 UNL       0.000000
    335 H169        -2.7480    45.4300     2.6350 hc         1 UNL       0.000000
    336 H170        -4.0050    46.2130     3.6080 hc         1 UNL       0.000000
    337 H171        -3.7870    46.6510     1.8930 hc         1 UNL       0.000000
    338 H172        -4.4520    44.3560     1.2280 hc         1 UNL       0.000000
    339 H173        -4.6390    43.9310     2.9380 hc         1 UNL       0.000000
    340 H174        -6.5260    45.4920     3.1630 hc         1 UNL       0.000000
    341 H175        -6.3370    45.9280     1.4360 hc         1 UNL       0.000000
    342 H176        -6.7330    43.9560     0.3350 hc         1 UNL       0.000000
    343 H177        -7.2830    43.5480     2.3920 hc         1 UNL       0.000000
    344 H178        -9.3850    44.8800     2.3740 hc         1 UNL       0.000000
    345 H179        -8.5640    45.5290     0.8940 hc         1 UNL       0.000000
    346 H180        -9.0010    43.6720    -0.4020 hc         1 UNL       0.000000
    347 H181        -9.3900    42.7290     1.0600 hc         1 UNL       0.000000
    348 H182       -10.8580    45.6120    -0.9860 ha         1 UNL       0.000000
    349 H183        -3.8900    49.1140     2.6250 hc         1 UNL       0.000000
    350 H184        -5.1130    49.9320     3.6090 hc         1 UNL       0.000000
    351 H185        -4.8720    50.3910     1.9040 hc         1 UNL       0.000000
    352 H186        -5.6270    48.1310     1.1980 hc         1 UNL       0.000000
    353 H187        -5.8650    47.6930     2.9000 hc         1 UNL       0.000000
    354 H188        -7.6650    49.3430     3.1400 hc         1 UNL       0.000000
    355 H189        -7.3870    49.9010     1.4710 hc         1 UNL       0.000000
    356 H190        -7.9160    47.6610     0.6200 hc         1 UNL       0.000000
    357 H191        -8.2990    47.1440     2.2770 hc         1 UNL       0.000000
    358 H192       -10.2180    48.6320     2.3890 hc         1 UNL       0.000000
    359 H193        -9.7260    49.4390     0.8860 hc         1 UNL       0.000000
    360 H194        -9.9910    47.3920    -0.3890 hc         1 UNL       0.000000
    361 H195       -10.4000    46.5210     1.1240 hc         1 UNL       0.000000
    362 H196       -11.7120    49.5210    -0.7910 ha         1 UNL       0.000000
    363 H197        -4.9340    52.9930     2.6170 hc         1 UNL       0.000000
    364 H198        -6.1610    53.7620     3.6400 hc         1 UNL       0.000000
    365 H199        -5.9740    54.2630     1.9420 hc         1 UNL       0.000000
    366 H200        -6.6770    51.9730     1.2190 hc         1 UNL       0.000000
    367 H201        -6.8760    51.5270     2.9170 hc         1 UNL       0.000000
    368 H202        -8.7160    53.0840     3.2070 hc         1 UNL       0.000000
    369 H203        -8.4740    53.7390     1.5650 hc         1 UNL       0.000000
    370 H204        -8.9020    51.5220     0.3730 hc         1 UNL       0.000000
    371 H205        -9.4250    51.0820     2.4140 hc         1 UNL       0.000000
    372 H206       -11.4430    52.5520     2.4840 hc         1 UNL       0.000000
    373 H207       -11.1160    53.6050     1.0570 hc         1 UNL       0.000000
    374 H208       -11.2260    51.5830    -0.4080 hc         1 UNL       0.000000
    375 H209       -11.4610    50.6140     1.0520 hc         1 UNL       0.000000
    376 H210       -16.0040    53.4730     0.0170 h4         1 UNL       0.000000
    377 H211       -13.4370    53.8310     0.3540 ha         1 UNL       0.000000
@<TRIPOS>BOND
     1     9     8 1   
     2     9    10 1   
     3    20    19 1   
     4    20    21 1   
     5    31    30 1   
     6    31    32 1   
     7    42    41 1   
     8    42    43 1   
     9    53    52 1   
    10    53    54 1   
    11    64    63 1   
    12    64    65 1   
    13    75    74 1   
    14    75    76 1   
    15    86    85 1   
    16    86    87 1   
    17    97    96 1   
    18    97    98 1   
    19   108   107 1   
    20   108   109 1   
    21   119   118 1   
    22   119   120 1   
    23   130   129 1   
    24   130   131 1   
    25   141   140 1   
    26   141   142 1   
    27   152   151 1   
    28   152   153 1   
    29   163   162 1   
    30   163   164 1   
    31     8     7 2   
    32    19    10 1   
    33    19    18 2   
    34    10    11 2   
    35    21    30 1   
    36    21    22 2   
    37    30    29 2   
    38    32    41 1   
    39    32    33 2   
    40    41    40 2   
    41    43    52 1   
    42    43    44 2   
    43    52    51 2   
    44    63    54 1   
    45    63    62 2   
    46    54    55 2   
    47    65    74 1   
    48    65    66 2   
    49    74    73 2   
    50    85    76 1   
    51    85    84 2   
    52    76    77 2   
    53    96    87 1   
    54    96    95 2   
    55    87    88 2   
    56    98   107 1   
    57    98    99 2   
    58   107   106 2   
    59   118   109 1   
    60   118   117 2   
    61   109   110 2   
    62   129   120 1   
    63   129   128 2   
    64   120   121 2   
    65   131   140 1   
    66   131   132 2   
    67   140   139 2   
    68   142   151 1   
    69   142   143 2   
    70   151   150 2   
    71   153   162 1   
    72   153   154 2   
    73   162   161 2   
    74   164   165 2   
    75    11     7 1   
    76     7     6 1   
    77    22    18 1   
    78    18    17 1   
    79    33    29 1   
    80    29    28 1   
    81    44    40 1   
    82    40    39 1   
    83    55    51 1   
    84    51    50 1   
    85    66    62 1   
    86    62    61 1   
    87    77    73 1   
    88    73    72 1   
    89    88    84 1   
    90    84    83 1   
    91    99    95 1   
    92    95    94 1   
    93   110   106 1   
    94   106   105 1   
    95   121   117 1   
    96   117   116 1   
    97   132   128 1   
    98   128   127 1   
    99   143   139 1   
   100   139   138 1   
   101   154   150 1   
   102   150   149 1   
   103   165   161 1   
   104   161   160 1   
   105     6     5 1   
   106    17    16 1   
   107    28    27 1   
   108    39    38 1   
   109    50    49 1   
   110    61    60 1   
   111    72    71 1   
   112    83    82 1   
   113    94    93 1   
   114   105   104 1   
   115   116   115 1   
   116   127   126 1   
   117   138   137 1   
   118   149   148 1   
   119   160   159 1   
   120     5     4 1   
   121    16    15 1   
   122    27    26 1   
   123    38    37 1   
   124    49    48 1   
   125    60    59 1   
   126    71    70 1   
   127    82    81 1   
   128    93    92 1   
   129   104   103 1   
   130   115   114 1   
   131   126   125 1   
   132   137   136 1   
   133   148   147 1   
   134   159   158 1   
   135     4     3 1   
   136    15    14 1   
   137    26    25 1   
   138    37    36 1   
   139    48    47 1   
   140    59    58 1   
   141    70    69 1   
   142    81    80 1   
   143    92    91 1   
   144   103   102 1   
   145   114   113 1   
   146   125   124 1   
   147   136   135 1   
   148   147   146 1   
   149   158   157 1   
   150     3     2 1   
   151     2     1 1   
   152    14    13 1   
   153    13    12 1   
   154    25    24 1   
   155    24    23 1   
   156    36    35 1   
   157    35    34 1   
   158    47    46 1   
   159    46    45 1   
   160    58    57 1   
   161    57    56 1   
   162    69    68 1   
   163    68    67 1   
   164    80    79 1   
   165    79    78 1   
   166    91    90 1   
   167    90    89 1   
   168   102   101 1   
   169   101   100 1   
   170   113   112 1   
   171   112   111 1   
   172   124   123 1   
   173   123   122 1   
   174   135   134 1   
   175   134   133 1   
   176   146   145 1   
   177   145   144 1   
   178   157   156 1   
   179   156   155 1   
   180     1   166 1   
   181     1   167 1   
   182     1   168 1   
   183     2   169 1   
   184     2   170 1   
   185     3   171 1   
   186     3   172 1   
   187     4   173 1   
   188     4   174 1   
   189     5   175 1   
   190     5   176 1   
   191     6   177 1   
   192     6   178 1   
   193     8   179 1   
   194    11   180 1   
   195    12   181 1   
   196    12   182 1   
   197    12   183 1   
   198    13   184 1   
   199    13   185 1   
   200    14   186 1   
   201    14   187 1   
   202    15   188 1   
   203    15   189 1   
   204    16   190 1   
   205    16   191 1   
   206    17   192 1   
   207    17   193 1   
   208    22   194 1   
   209    23   195 1   
   210    23   196 1   
   211    23   197 1   
   212    24   198 1   
   213    24   199 1   
   214    25   200 1   
   215    25   201 1   
   216    26   202 1   
   217    26   203 1   
   218    27   204 1   
   219    27   205 1   
   220    28   206 1   
   221    28   207 1   
   222    33   208 1   
   223    34   209 1   
   224    34   210 1   
   225    34   211 1   
   226    35   212 1   
   227    35   213 1   
   228    36   214 1   
   229    36   215 1   
   230    37   216 1   
   231    37   217 1   
   232    38   218 1   
   233    38   219 1   
   234    39   220 1   
   235    39   221 1   
   236    44   222 1   
   237    45   223 1   
   238    45   224 1   
   239    45   225 1   
   240    46   226 1   
   241    46   227 1   
   242    47   228 1   
   243    47   229 1   
   244    48   230 1   
   245    48   231 1   
   246    49   232 1   
   247    49   233 1   
   248    50   234 1   
   249    50   235 1   
   250    55   236 1   
   251    56   237 1   
   252    56   238 1   
   253    56   239 1   
   254    57   240 1   
   255    57   241 1   
   256    58   242 1   
   257    58   243 1   
   258    59   244 1   
   259    59   245 1   
   260    60   246 1   
   261    60   247 1   
   262    61   248 1   
   263    61   249 1   
   264    66   250 1   
   265    67   251 1   
   266    67   252 1   
   267    67   253 1   
   268    68   254 1   
   269    68   255 1   
   270    69   256 1   
   271    69   257 1   
   272    70   258 1   
   273    70   259 1   
   274    71   260 1   
   275    71   261 1   
   276    72   262 1   
   277    72   263 1   
   278    77   264 1   
   279    78   265 1   
   280    78   266 1   
   281    78   267 1   
   282    79   268 1   
   283    79   269 1   
   284    80   270 1   
   285    80   271 1   
   286    81   272 1   
   287    81   273 1   
   288    82   274 1   
   289    82   275 1   
   290    83   276 1   
   291    83   277 1   
   292    88   278 1   
   293    89   279 1   
   294    89   280 1   
   295    89   281 1   
   296    90   282 1   
   297    90   283 1   
   298    91   284 1   
   299    91   285 1   
   300    92   286 1   
   301    92   287 1   
   302    93   288 1   
   303    93   289 1   
   304    94   290 1   
   305    94   291 1   
   306    99   292 1   
   307   100   293 1   
   308   100   294 1   
   309   100   295 1   
   310   101   296 1   
   311   101   297 1   
   312   102   298 1   
   313   102   299 1   
   314   103   300 1   
   315   103   301 1   
   316   104   302 1   
   317   104   303 1   
   318   105   304 1   
   319   105   305 1   
   320   110   306 1   
   321   111   307 1   
   322   111   308 1   
   323   111   309 1   
   324   112   310 1   
   325   112   311 1   
   326   113   312 1   
   327   113   313 1   
   328   114   314 1   
   329   114   315 1   
   330   115   316 1   
   331   115   317 1   
   332   116   318 1   
   333   116   319 1   
   334   121   320 1   
   335   122   321 1   
   336   122   322 1   
   337   122   323 1   
   338   123   324 1   
   339   123   325 1   
   340   124   326 1   
   341   124   327 1   
   342   125   328 1   
   343   125   329 1   
   344   126   330 1   
   345   126   331 1   
   346   127   332 1   
   347   127   333 1   
   348   132   334 1   
   349   133   335 1   
   350   133   336 1   
   351   133   337 1   
   352   134   338 1   
   353   134   339 1   
   354   135   340 1   
   355   135   341 1   
   356   136   342 1   
   357   136   343 1   
   358   137   344 1   
   359   137   345 1   
   360   138   346 1   
   361   138   347 1   
   362   143   348 1   
   363   144   349 1   
   364   144   350 1   
   365   144   351 1   
   366   145   352 1   
   367   145   353 1   
   368   146   354 1   
   369   146   355 1   
   370   147   356 1   
   371   147   357 1   
   372   148   358 1   
   373   148   359 1   
   374   149   360 1   
   375   149   361 1   
   376   154   362 1   
   377   155   363 1   
   378   155   364 1   
   379   155   365 1   
   380   156   366 1   
   381   156   367 1   
   382   157   368 1   
   383   157   369 1   
   384   158   370 1   
   385   158   371 1   
   386   159   372 1   
   387   159   373 1   
   388   160   374 1   
   389   160   375 1   
   390   164   376 1   
   391   165   377 1   
@<TRIPOS>SUBSTRUCTURE
     1 UNL         1 TEMP              0 ****  ****    0 ROOT
