@<TRIPOS>MOLECULE
*****
  105   109     1     0     0
SMALL
dc


@<TRIPOS>ATOM
      1 C           -3.8690    -0.1520     0.3970 cc         1 UNL       0.000000
      2 C1          -3.4850    -1.4780     0.3210 cd         1 UNL       0.000000
      3 C2          -2.1210    -1.6870     0.5540 cd         1 UNL       0.000000
      4 C3          -1.3360    -0.5030     0.8360 cc         1 UNL       0.000000
      5 S           -2.4740     0.7500     0.7600 ss         1 UNL       0.000000
      6 H           -4.8720     0.2270     0.2460 h4         1 UNL       0.000000
      7 C4          -4.2780    -2.6250     0.0340 cd         1 UNL       0.000000
      8 C5          -3.5390    -3.8190     0.0220 cc         1 UNL       0.000000
      9 S1          -1.9000    -3.3650     0.3930 ss         1 UNL       0.000000
     10 F           -5.6060    -2.5500    -0.2190 f          1 UNL       0.000000
     11 C6          -3.9630    -5.2550    -0.2830 c          1 UNL       0.000000
     12 O           -3.0510    -6.0650    -0.2850 o          1 UNL       0.000000
     13 O1          -5.2050    -5.7810    -0.6000 os         1 UNL       0.000000
     14 C7          -6.5360    -5.3810    -0.5220 c3         1 UNL       0.000000
     15 C8          -7.5090    -6.4810    -1.1160 c3         1 UNL       0.000000
     16 H1          -6.6750    -4.4640    -1.1270 h1         1 UNL       0.000000
     17 H2          -6.8080    -5.1800     0.5360 h1         1 UNL       0.000000
     18 C9          -7.4630    -7.8760    -0.4130 c3         1 UNL       0.000000
     19 C10         -6.0870    -8.5510    -0.4100 c3         1 UNL       0.000000
     20 H3          -8.1290    -8.5630    -0.9770 hc         1 UNL       0.000000
     21 H4          -7.8450    -7.8060     0.6290 hc         1 UNL       0.000000
     22 C11         -6.1700   -10.0080     0.0700 c3         1 UNL       0.000000
     23 H5          -5.4110    -7.9960     0.2690 hc         1 UNL       0.000000
     24 H6          -5.6770    -8.5480    -1.4440 hc         1 UNL       0.000000
     25 C12         -4.7810   -10.6390     0.1060 c3         1 UNL       0.000000
     26 H7          -6.8130   -10.5960    -0.6230 hc         1 UNL       0.000000
     27 H8          -6.6130   -10.0540     1.0880 hc         1 UNL       0.000000
     28 H9          -4.3180   -10.6140    -0.9040 hc         1 UNL       0.000000
     29 H10         -4.8540   -11.6960     0.4370 hc         1 UNL       0.000000
     30 H11         -4.1310   -10.0870     0.8180 hc         1 UNL       0.000000
     31 C13         -8.9800    -5.9520    -1.1110 c3         1 UNL       0.000000
     32 H12         -7.2180    -6.6380    -2.1790 hc         1 UNL       0.000000
     33 C14        -10.0190    -6.8720    -1.7870 c3         1 UNL       0.000000
     34 H13         -9.0100    -4.9860    -1.6570 hc         1 UNL       0.000000
     35 H14         -9.3130    -5.7720    -0.0660 hc         1 UNL       0.000000
     36 H15         -9.7390    -7.0820    -2.8410 hc         1 UNL       0.000000
     37 H16        -11.0150    -6.3790    -1.7840 hc         1 UNL       0.000000
     38 H17        -10.1520    -7.8320    -1.2470 hc         1 UNL       0.000000
     39 C15          0.1530    -0.2710     1.1440 cc         1 UNL       0.000000
     40 C16          0.9060     0.9580     1.3850 cd         1 UNL       0.000000
     41 C17          2.3330     0.8050     1.6590 ca         1 UNL       0.000000
     42 C18          2.6220    -0.6540     1.6170 ca         1 UNL       0.000000
     43 C19          3.4350     1.8250     1.9630 ca         1 UNL       0.000000
     44 C20          4.6540     1.1010     2.1520 ca         1 UNL       0.000000
     45 C21          4.9060    -0.3410     2.0990 ca         1 UNL       0.000000
     46 C22          3.8710    -1.3270     1.8260 ca         1 UNL       0.000000
     47 C23          6.2690    -0.6020     2.3720 cc         1 UNL       0.000000
     48 C24          7.0380     0.5300     2.6240 cd         1 UNL       0.000000
     49 H18          0.4230     1.9240     1.3580 ha         1 UNL       0.000000
     50 H19          6.7370    -1.5620     2.4050 ha         1 UNL       0.000000
     51 S2           1.2290    -1.5350     1.2720 ss         1 UNL       0.000000
     52 S3           6.0870     1.8900     2.5120 ss         1 UNL       0.000000
     53 H20          8.0910     0.5500     2.8620 h4         1 UNL       0.000000
     54 O2           3.5770     3.3090     2.1270 os         1 UNL       0.000000
     55 O3           3.9420    -2.7930     1.7730 os         1 UNL       0.000000
     56 C25          3.2370     4.7850     2.1530 c3         1 UNL       0.000000
     57 C26          4.2450     6.1180     2.7560 c3         1 UNL       0.000000
     58 H21          2.3200     4.8410     2.7790 h1         1 UNL       0.000000
     59 H22          2.8540     5.0780     1.1510 h1         1 UNL       0.000000
     60 C27          5.5090     5.6420     3.4990 c3         1 UNL       0.000000
     61 C28          6.8030     6.4240     3.2370 c3         1 UNL       0.000000
     62 H23          5.6780     4.5900     3.2340 hc         1 UNL       0.000000
     63 H24          5.3320     5.6980     4.6000 hc         1 UNL       0.000000
     64 H25          7.0540     6.4490     2.1580 hc         1 UNL       0.000000
     65 H26          7.6250     5.9430     3.8030 hc         1 UNL       0.000000
     66 H27          6.7600     7.4550     3.6280 hc         1 UNL       0.000000
     67 C29          4.3010     7.8090     2.4270 c3         1 UNL       0.000000
     68 H28          3.6090     6.2880     3.6480 hc         1 UNL       0.000000
     69 C30          4.9990     9.1200     3.2600 c3         1 UNL       0.000000
     70 H29          3.2250     8.0810     2.5550 hc         1 UNL       0.000000
     71 H30          4.4710     8.0190     1.3490 hc         1 UNL       0.000000
     72 C31          6.2240    10.1840     2.9640 c3         1 UNL       0.000000
     73 H31          4.8550     9.0750     4.3570 hc         1 UNL       0.000000
     74 H32          4.2320     9.8760     2.9640 hc         1 UNL       0.000000
     75 C32          7.4500    10.4000     3.9270 c3         1 UNL       0.000000
     76 H33          5.7940    11.2170     3.1020 hc         1 UNL       0.000000
     77 H34          6.5740    10.2020     1.9110 hc         1 UNL       0.000000
     78 H35          7.1460    10.6130     4.9790 hc         1 UNL       0.000000
     79 H36          8.0150    11.3310     3.6330 hc         1 UNL       0.000000
     80 H37          8.2040     9.5920     3.9120 hc         1 UNL       0.000000
     81 C33          5.0500    -3.7340     1.6600 c3         1 UNL       0.000000
     82 C34          5.3010    -5.3920     2.0450 c3         1 UNL       0.000000
     83 H38          5.6790    -3.2980     2.4370 h1         1 UNL       0.000000
     84 H39          5.5200    -3.5590     0.6720 h1         1 UNL       0.000000
     85 C35          6.9350    -5.3820     1.9720 c3         1 UNL       0.000000
     86 C36          8.1400    -6.2880     2.3490 c3         1 UNL       0.000000
     87 H40          7.2450    -4.5320     2.6040 hc         1 UNL       0.000000
     88 H41          7.1540    -5.1690     0.9040 hc         1 UNL       0.000000
     89 H42          8.2260    -6.5140     3.4310 hc         1 UNL       0.000000
     90 H43          9.0580    -5.6680     2.1310 hc         1 UNL       0.000000
     91 H44          8.2890    -7.1940     1.7270 hc         1 UNL       0.000000
     92 C37          4.6910    -6.8620     1.4180 c3         1 UNL       0.000000
     93 H45          5.0060    -5.4460     3.1160 hc         1 UNL       0.000000
     94 C38          4.1470    -8.2810     0.7440 c3         1 UNL       0.000000
     95 H46          4.7870    -7.4040     2.3900 hc         1 UNL       0.000000
     96 H47          5.5960    -7.0190     0.7980 hc         1 UNL       0.000000
     97 C39          2.7400    -8.9420     1.0730 c3         1 UNL       0.000000
     98 H48          4.1660    -8.2230    -0.3690 hc         1 UNL       0.000000
     99 H49          4.8780    -9.0980     0.9990 hc         1 UNL       0.000000
    100 C40          2.5030   -10.3890     0.4980 c3         1 UNL       0.000000
    101 H50          1.9380    -8.3080     0.6440 hc         1 UNL       0.000000
    102 H51          2.5830    -9.0380     2.1650 hc         1 UNL       0.000000
    103 H52          2.6290   -10.4640    -0.6050 hc         1 UNL       0.000000
    104 H53          1.4590   -10.7350     0.7060 hc         1 UNL       0.000000
    105 H54          3.1610   -11.1560     0.9680 hc         1 UNL       0.000000
@<TRIPOS>BOND
     1     1     2 2   
     2     2     3 1   
     3     3     4 2   
     4     1     5 1   
     5     5     4 1   
     6     1     6 1   
     7     2     7 1   
     8     7     8 2   
     9     3     9 1   
    10     8     9 1   
    11     7    10 1   
    12     8    11 1   
    13    11    12 2   
    14    11    13 1   
    15    13    14 1   
    16    14    15 1   
    17    14    16 1   
    18    14    17 1   
    19    15    18 1   
    20    18    19 1   
    21    18    20 1   
    22    18    21 1   
    23    19    22 1   
    24    19    23 1   
    25    19    24 1   
    26    22    25 1   
    27    22    26 1   
    28    22    27 1   
    29    25    28 1   
    30    25    29 1   
    31    25    30 1   
    32    15    31 1   
    33    15    32 1   
    34    31    33 1   
    35    31    34 1   
    36    31    35 1   
    37    33    36 1   
    38    33    37 1   
    39    33    38 1   
    40     4    39 1   
    41    39    40 2   
    42    40    41 1   
    43    41    42 ar  
    44    41    43 ar  
    45    43    44 ar  
    46    44    45 ar  
    47    45    46 ar  
    48    46    42 ar  
    49    45    47 1   
    50    47    48 2   
    51    40    49 1   
    52    47    50 1   
    53    39    51 1   
    54    51    42 1   
    55    44    52 1   
    56    52    48 1   
    57    48    53 1   
    58    43    54 1   
    59    46    55 1   
    60    54    56 1   
    61    56    57 1   
    62    56    58 1   
    63    56    59 1   
    64    57    60 1   
    65    60    61 1   
    66    60    62 1   
    67    60    63 1   
    68    61    64 1   
    69    61    65 1   
    70    61    66 1   
    71    57    67 1   
    72    57    68 1   
    73    67    69 1   
    74    67    70 1   
    75    67    71 1   
    76    69    72 1   
    77    69    73 1   
    78    69    74 1   
    79    72    75 1   
    80    72    76 1   
    81    72    77 1   
    82    75    78 1   
    83    75    79 1   
    84    75    80 1   
    85    55    81 1   
    86    81    82 1   
    87    81    83 1   
    88    81    84 1   
    89    82    85 1   
    90    85    86 1   
    91    85    87 1   
    92    85    88 1   
    93    86    89 1   
    94    86    90 1   
    95    86    91 1   
    96    82    92 1   
    97    82    93 1   
    98    92    94 1   
    99    92    95 1   
   100    92    96 1   
   101    94    97 1   
   102    94    98 1   
   103    94    99 1   
   104    97   100 1   
   105    97   101 1   
   106    97   102 1   
   107   100   103 1   
   108   100   104 1   
   109   100   105 1   
@<TRIPOS>SUBSTRUCTURE
     1 UNL         1 TEMP              0 ****  ****    0 ROOT
