@<TRIPOS>MOLECULE
*****
 105 109 0 0 0
SMALL
GASTEIGER

@<TRIPOS>ATOM
      1 C          -3.8694   -0.1522    0.3972 C.ar    1  UNL1       -0.0127
      2 C          -3.4847   -1.4785    0.3212 C.ar    1  UNL1        0.0329
      3 C          -2.1209   -1.6872    0.5544 C.ar    1  UNL1        0.0382
      4 C          -1.3359   -0.5029    0.8360 C.ar    1  UNL1        0.0403
      5 S          -2.4735    0.7504    0.7596 S.2     1  UNL1       -0.0943
      6 H          -4.8718    0.2274    0.2456 H       1  UNL1        0.0701
      7 C          -4.2778   -2.6246    0.0342 C.ar    1  UNL1        0.1527
      8 C          -3.5388   -3.8186    0.0219 C.ar    1  UNL1        0.1325
      9 S          -1.8997   -3.3649    0.3932 S.2     1  UNL1       -0.0778
     10 F          -5.6062   -2.5500   -0.2193 F       1  UNL1       -0.2034
     11 C          -3.9628   -5.2545   -0.2832 C.2     1  UNL1        0.3487
     12 O          -3.0506   -6.0648   -0.2846 O.2     1  UNL1       -0.2443
     13 O          -5.2048   -5.7810   -0.5995 O.3     1  UNL1       -0.4605
     14 C          -6.5363   -5.3807   -0.5218 C.3     1  UNL1        0.0956
     15 C          -7.5090   -6.4815   -1.1158 C.3     1  UNL1       -0.0069
     16 H          -6.6746   -4.4636   -1.1268 H       1  UNL1        0.0700
     17 H          -6.8080   -5.1802    0.5360 H       1  UNL1        0.0700
     18 C          -7.4628   -7.8760   -0.4128 C.3     1  UNL1       -0.0471
     19 C          -6.0873   -8.5511   -0.4101 C.3     1  UNL1       -0.0529
     20 H          -8.1289   -8.5635   -0.9767 H       1  UNL1        0.0269
     21 H          -7.8450   -7.8063    0.6293 H       1  UNL1        0.0269
     22 C          -6.1697  -10.0080    0.0696 C.3     1  UNL1       -0.0559
     23 H          -5.4111   -7.9959    0.2685 H       1  UNL1        0.0265
     24 H          -5.6769   -8.5477   -1.4435 H       1  UNL1        0.0265
     25 C          -4.7806  -10.6394    0.1056 C.3     1  UNL1       -0.0653
     26 H          -6.8128  -10.5963   -0.6231 H       1  UNL1        0.0263
     27 H          -6.6128  -10.0542    1.0880 H       1  UNL1        0.0263
     28 H          -4.3176  -10.6135   -0.9041 H       1  UNL1        0.0230
     29 H          -4.8538  -11.6964    0.4369 H       1  UNL1        0.0230
     30 H          -4.1308  -10.0871    0.8175 H       1  UNL1        0.0230
     31 C          -8.9798   -5.9525   -1.1112 C.3     1  UNL1       -0.0500
     32 H          -7.2176   -6.6382   -2.1786 H       1  UNL1        0.0333
     33 C         -10.0188   -6.8722   -1.7871 C.3     1  UNL1       -0.0649
     34 H          -9.0102   -4.9861   -1.6569 H       1  UNL1        0.0266
     35 H          -9.3134   -5.7725   -0.0659 H       1  UNL1        0.0266
     36 H          -9.7389   -7.0815   -2.8412 H       1  UNL1        0.0230
     37 H         -11.0151   -6.3787   -1.7843 H       1  UNL1        0.0230
     38 H         -10.1515   -7.8325   -1.2467 H       1  UNL1        0.0230
     39 C           0.1532   -0.2709    1.1443 C.ar    1  UNL1        0.0284
     40 C           0.9057    0.9582    1.3848 C.ar    1  UNL1       -0.0350
     41 C           2.3331    0.8046    1.6595 C.ar    1  UNL1        0.0361
     42 C           2.6215   -0.6540    1.6167 C.ar    1  UNL1        0.0657
     43 C           3.4351    1.8252    1.9630 C.ar    1  UNL1        0.1432
     44 C           4.6537    1.1007    2.1522 C.ar    1  UNL1        0.0651
     45 C           4.9062   -0.3414    2.0986 C.ar    1  UNL1        0.0355
     46 C           3.8713   -1.3273    1.8256 C.ar    1  UNL1        0.1432
     47 C           6.2685   -0.6023    2.3716 C.ar    1  UNL1       -0.0433
     48 C           7.0384    0.5296    2.6238 C.ar    1  UNL1       -0.0230
     49 H           0.4231    1.9239    1.3583 H       1  UNL1        0.0636
     50 H           6.7372   -1.5617    2.4045 H       1  UNL1        0.0630
     51 S           1.2294   -1.5354    1.2715 S.2     1  UNL1       -0.0839
     52 S           6.0870    1.8898    2.5124 S.2     1  UNL1       -0.0929
     53 H           8.0913    0.5496    2.8618 H       1  UNL1        0.0694
     54 O           3.5768    3.3090    2.1274 O.3     1  UNL1       -0.4899
     55 O           3.9425   -2.7934    1.7727 O.3     1  UNL1       -0.4899
     56 C           3.2374    4.7846    2.1528 C.3     1  UNL1        0.0925
     57 C           4.2446    6.1180    2.7560 C.3     1  UNL1       -0.0070
     58 H           2.3204    4.8410    2.7793 H       1  UNL1        0.0699
     59 H           2.8545    5.0781    1.1508 H       1  UNL1        0.0699
     60 C           5.5091    5.6422    3.4987 C.3     1  UNL1       -0.0500
     61 C           6.8025    6.4240    3.2373 C.3     1  UNL1       -0.0649
     62 H           5.6781    4.5899    3.2344 H       1  UNL1        0.0266
     63 H           5.3317    5.6978    4.5997 H       1  UNL1        0.0266
     64 H           7.0544    6.4492    2.1583 H       1  UNL1        0.0230
     65 H           7.6250    5.9427    3.8026 H       1  UNL1        0.0230
     66 H           6.7601    7.4550    3.6282 H       1  UNL1        0.0230
     67 C           4.3007    7.8091    2.4271 C.3     1  UNL1       -0.0471
     68 H           3.6091    6.2877    3.6478 H       1  UNL1        0.0333
     69 C           4.9986    9.1199    3.2600 C.3     1  UNL1       -0.0529
     70 H           3.2251    8.0807    2.5552 H       1  UNL1        0.0269
     71 H           4.4707    8.0193    1.3495 H       1  UNL1        0.0269
     72 C           6.2240   10.1839    2.9644 C.3     1  UNL1       -0.0559
     73 H           4.8547    9.0745    4.3574 H       1  UNL1        0.0265
     74 H           4.2317    9.8757    2.9639 H       1  UNL1        0.0265
     75 C           7.4496   10.3997    3.9270 C.3     1  UNL1       -0.0653
     76 H           5.7944   11.2173    3.1016 H       1  UNL1        0.0263
     77 H           6.5745   10.2018    1.9111 H       1  UNL1        0.0263
     78 H           7.1463   10.6132    4.9786 H       1  UNL1        0.0230
     79 H           8.0150   11.3314    3.6331 H       1  UNL1        0.0230
     80 H           8.2041    9.5919    3.9115 H       1  UNL1        0.0230
     81 C           5.0495   -3.7338    1.6600 C.3     1  UNL1        0.0925
     82 C           5.3014   -5.3922    2.0445 C.3     1  UNL1       -0.0070
     83 H           5.6794   -3.2980    2.4367 H       1  UNL1        0.0699
     84 H           5.5198   -3.5588    0.6717 H       1  UNL1        0.0699
     85 C           6.9351   -5.3819    1.9721 C.3     1  UNL1       -0.0500
     86 C           8.1400   -6.2883    2.3485 C.3     1  UNL1       -0.0649
     87 H           7.2452   -4.5320    2.6037 H       1  UNL1        0.0266
     88 H           7.1545   -5.1690    0.9036 H       1  UNL1        0.0266
     89 H           8.2259   -6.5144    3.4312 H       1  UNL1        0.0230
     90 H           9.0576   -5.6676    2.1310 H       1  UNL1        0.0230
     91 H           8.2887   -7.1938    1.7266 H       1  UNL1        0.0230
     92 C           4.6912   -6.8616    1.4180 C.3     1  UNL1       -0.0471
     93 H           5.0057   -5.4455    3.1162 H       1  UNL1        0.0333
     94 C           4.1467   -8.2814    0.7439 C.3     1  UNL1       -0.0529
     95 H           4.7874   -7.4040    2.3901 H       1  UNL1        0.0269
     96 H           5.5963   -7.0193    0.7980 H       1  UNL1        0.0269
     97 C           2.7405   -8.9417    1.0726 C.3     1  UNL1       -0.0559
     98 H           4.1659   -8.2228   -0.3686 H       1  UNL1        0.0265
     99 H           4.8778   -9.0983    0.9993 H       1  UNL1        0.0265
    100 C           2.5031  -10.3885    0.4979 C.3     1  UNL1       -0.0653
    101 H           1.9375   -8.3081    0.6440 H       1  UNL1        0.0263
    102 H           2.5829   -9.0381    2.1654 H       1  UNL1        0.0263
    103 H           2.6294  -10.4641   -0.6049 H       1  UNL1        0.0230
    104 H           1.4586  -10.7349    0.7060 H       1  UNL1        0.0230
    105 H           3.1607  -11.1556    0.9680 H       1  UNL1        0.0230
@<TRIPOS>BOND
     1     1     2   ar
     2     2     3   ar
     3     3     4   ar
     4     1     5   ar
     5     5     4   ar
     6     1     6    1
     7     2     7   ar
     8     7     8   ar
     9     3     9   ar
    10     8     9   ar
    11     7    10    1
    12     8    11    1
    13    11    12    2
    14    11    13    1
    15    13    14    1
    16    14    15    1
    17    14    16    1
    18    14    17    1
    19    15    18    1
    20    18    19    1
    21    18    20    1
    22    18    21    1
    23    19    22    1
    24    19    23    1
    25    19    24    1
    26    22    25    1
    27    22    26    1
    28    22    27    1
    29    25    28    1
    30    25    29    1
    31    25    30    1
    32    15    31    1
    33    15    32    1
    34    31    33    1
    35    31    34    1
    36    31    35    1
    37    33    36    1
    38    33    37    1
    39    33    38    1
    40     4    39    1
    41    39    40   ar
    42    40    41   ar
    43    41    42   ar
    44    41    43   ar
    45    43    44   ar
    46    44    45   ar
    47    45    46   ar
    48    46    42   ar
    49    45    47   ar
    50    47    48   ar
    51    40    49    1
    52    47    50    1
    53    39    51   ar
    54    51    42   ar
    55    44    52   ar
    56    52    48   ar
    57    48    53    1
    58    43    54    1
    59    46    55    1
    60    54    56    1
    61    56    57    1
    62    56    58    1
    63    56    59    1
    64    57    60    1
    65    60    61    1
    66    60    62    1
    67    60    63    1
    68    61    64    1
    69    61    65    1
    70    61    66    1
    71    57    67    1
    72    57    68    1
    73    67    69    1
    74    67    70    1
    75    67    71    1
    76    69    72    1
    77    69    73    1
    78    69    74    1
    79    72    75    1
    80    72    76    1
    81    72    77    1
    82    75    78    1
    83    75    79    1
    84    75    80    1
    85    55    81    1
    86    81    82    1
    87    81    83    1
    88    81    84    1
    89    82    85    1
    90    85    86    1
    91    85    87    1
    92    85    88    1
    93    86    89    1
    94    86    90    1
    95    86    91    1
    96    82    92    1
    97    82    93    1
    98    92    94    1
    99    92    95    1
   100    92    96    1
   101    94    97    1
   102    94    98    1
   103    94    99    1
   104    97   100    1
   105    97   101    1
   106    97   102    1
   107   100   103    1
   108   100   104    1
   109   100   105    1
