@<TRIPOS>MOLECULE
*****
  285   303     1     0     0
SMALL
dc


@<TRIPOS>ATOM
      1 O           21.2330     4.2630    -1.3480 o          1 UNL       0.000000
      2 C           21.9830     3.4340    -0.8770 c          1 UNL       0.000000
      3 C1          23.3970     3.6550    -0.5600 ca         1 UNL       0.000000
      4 C2          24.0090     2.4620    -0.1410 ca         1 UNL       0.000000
      5 C3          25.3260     2.5230     0.2930 ca         1 UNL       0.000000
      6 C4          25.9950     3.7560     0.2860 ca         1 UNL       0.000000
      7 C5          25.3630     4.9250    -0.1590 ca         1 UNL       0.000000
      8 C6          24.0430     4.8820    -0.5930 ca         1 UNL       0.000000
      9 C7          23.0130     1.3530    -0.2390 cc         1 UNL       0.000000
     10 C8          21.7050     2.0100    -0.5110 cc         1 UNL       0.000000
     11 C9          20.4910     1.5060    -0.2620 cf         1 UNL       0.000000
     12 C10         19.2540     2.1920    -0.1560 cd         1 UNL       0.000000
     13 S           17.8680     1.3260    -0.6360 ss         1 UNL       0.000000
     14 C11         18.8820     3.3960     0.4140 cc         1 UNL       0.000000
     15 C12         17.4740     3.4530     0.7370 ca         1 UNL       0.000000
     16 C13         16.8320     2.2820     0.3510 ca         1 UNL       0.000000
     17 C14         15.4930     2.0120     0.7310 ca         1 UNL       0.000000
     18 C15         15.0040     0.7190     0.5350 ca         1 UNL       0.000000
     19 C16         13.6700     0.4120     0.7410 ca         1 UNL       0.000000
     20 C17         12.9710    -0.9550     0.5530 c3         1 UNL       0.000000
     21 C18         13.9420    -1.8190    -0.3350 c3         1 UNL       0.000000
     22 C19         15.1490    -2.4160     0.4700 c3         1 UNL       0.000000
     23 C20         16.5500    -2.5570    -0.1240 c3         1 UNL       0.000000
     24 C21         16.6260    -3.1930    -1.5020 c3         1 UNL       0.000000
     25 C22         18.0280    -3.7720    -1.7540 c3         1 UNL       0.000000
     26 C23         18.2250    -5.1380    -1.0730 c3         1 UNL       0.000000
     27 C24         19.4870    -5.2010    -0.2090 c3         1 UNL       0.000000
     28 C25         19.5710    -6.5200     0.5460 c3         1 UNL       0.000000
     29 C26         12.7320    -1.6280     1.9880 c3         1 UNL       0.000000
     30 C27         12.3080    -3.1250     2.0060 c3         1 UNL       0.000000
     31 C28         13.3130    -4.1570     2.5880 c3         1 UNL       0.000000
     32 C29         13.4690    -5.3830     1.6540 c3         1 UNL       0.000000
     33 C30         14.6750    -6.2880     1.9610 c3         1 UNL       0.000000
     34 C31         14.8970    -7.3120     0.8310 c3         1 UNL       0.000000
     35 C32         15.8920    -8.4150     1.1980 c3         1 UNL       0.000000
     36 C33         16.1400    -9.3610     0.0280 c3         1 UNL       0.000000
     37 C34         12.7730     1.4580     0.8980 cp         1 UNL       0.000000
     38 C35         13.2880     2.6690     1.3800 ca         1 UNL       0.000000
     39 C36         14.6840     2.9880     1.3170 ca         1 UNL       0.000000
     40 C37         15.3240     4.1950     1.7140 ca         1 UNL       0.000000
     41 C38         14.6220     5.2510     2.5250 c3         1 UNL       0.000000
     42 C39         16.7050     4.4030     1.4500 ca         1 UNL       0.000000
     43 C40         11.4750     1.0320     0.3790 cp         1 UNL       0.000000
     44 C41         11.5890    -0.3750     0.0370 ca         1 UNL       0.000000
     45 C42         10.4480    -1.0080    -0.4900 cp         1 UNL       0.000000
     46 C43         10.1930    -2.4040    -0.7600 cp         1 UNL       0.000000
     47 C44         10.9910    -3.4380    -1.2420 ca         1 UNL       0.000000
     48 C45         10.6120    -4.8010    -1.0830 ca         1 UNL       0.000000
     49 C46         11.4120    -5.9320    -1.3840 ca         1 UNL       0.000000
     50 C47         12.7360    -5.8360    -2.0990 c3         1 UNL       0.000000
     51 C48         10.9920    -7.2240    -0.9720 ca         1 UNL       0.000000
     52 C49          9.7470    -7.4370    -0.3240 ca         1 UNL       0.000000
     53 C50          8.9340    -6.3290    -0.1300 ca         1 UNL       0.000000
     54 S1           7.4800    -6.7660     0.6630 ss         1 UNL       0.000000
     55 C51          7.8130    -8.4460     0.6160 cc         1 UNL       0.000000
     56 C52          6.6710    -9.2580     0.8940 ce         1 UNL       0.000000
     57 C53          6.5450   -10.5670     0.6480 cd         1 UNL       0.000000
     58 C54          5.3400   -11.2850     0.1360 cd         1 UNL       0.000000
     59 C55          5.7600   -12.7040    -0.0700 ca         1 UNL       0.000000
     60 C56          5.1180   -13.8180    -0.5960 ca         1 UNL       0.000000
     61 C57          5.8110   -15.0310    -0.6950 ca         1 UNL       0.000000
     62 C58          7.1330   -15.1490    -0.2490 ca         1 UNL       0.000000
     63 C59          7.7900   -14.0460     0.2840 ca         1 UNL       0.000000
     64 C60          7.0950   -12.8480     0.3370 ca         1 UNL       0.000000
     65 C61          7.6430   -11.5720     0.8040 c          1 UNL       0.000000
     66 O1           8.7330   -11.4370     1.3200 o          1 UNL       0.000000
     67 C62          9.1070    -8.6440     0.1640 cd         1 UNL       0.000000
     68 C63          9.3420    -5.0290    -0.5170 ca         1 UNL       0.000000
     69 C64          8.4410    -3.9760    -0.3160 ca         1 UNL       0.000000
     70 C65          8.8550    -2.6760    -0.5070 ca         1 UNL       0.000000
     71 C66          8.0060    -1.4010    -0.4180 c3         1 UNL       0.000000
     72 C67          7.2600    -1.4530     0.9590 c3         1 UNL       0.000000
     73 C68          6.4890    -0.2230     1.4780 c3         1 UNL       0.000000
     74 C69          5.0310    -0.5050     1.9110 c3         1 UNL       0.000000
     75 C70          4.0100     0.0440     0.9010 c3         1 UNL       0.000000
     76 C71          2.6050    -0.5530     1.0670 c3         1 UNL       0.000000
     77 C72          1.7240    -0.3400    -0.1730 c3         1 UNL       0.000000
     78 C73          0.8990     0.9440    -0.1410 c3         1 UNL       0.000000
     79 C74         -0.2930     0.8310     0.8000 c3         1 UNL       0.000000
     80 C75          7.0320    -1.3450    -1.6360 c3         1 UNL       0.000000
     81 C76          6.2940    -2.5920    -2.2060 c3         1 UNL       0.000000
     82 C77          4.8240    -2.7650    -1.7810 c3         1 UNL       0.000000
     83 C78          4.4230    -4.1220    -1.1650 c3         1 UNL       0.000000
     84 C79          4.2950    -4.0460     0.3600 c3         1 UNL       0.000000
     85 C80          3.3980    -5.0690     1.0660 c3         1 UNL       0.000000
     86 C81          2.0130    -5.3460     0.4740 c3         1 UNL       0.000000
     87 C82          1.0830    -4.1460     0.4670 c3         1 UNL       0.000000
     88 C83          9.1800    -0.3510    -0.4840 ca         1 UNL       0.000000
     89 C84          9.1780     1.0460    -0.4450 cp         1 UNL       0.000000
     90 C85         10.3150     1.7640     0.0460 ca         1 UNL       0.000000
     91 C86         10.0110     3.3100     0.0730 c3         1 UNL       0.000000
     92 C87         10.6380     3.9890    -1.2160 c3         1 UNL       0.000000
     93 C88         12.1580     4.1910    -1.3240 c3         1 UNL       0.000000
     94 C89         12.6430     5.5300    -1.9440 c3         1 UNL       0.000000
     95 C90         13.4370     6.3340    -0.8980 c3         1 UNL       0.000000
     96 C91         13.7760     7.7840    -1.2500 c3         1 UNL       0.000000
     97 C92         14.1950     8.5210     0.0370 c3         1 UNL       0.000000
     98 C93         14.6320     9.9690    -0.1760 c3         1 UNL       0.000000
     99 C94         16.0840    10.0800    -0.6120 c3         1 UNL       0.000000
    100 C95         10.0860     4.0150     1.4740 c3         1 UNL       0.000000
    101 C96         10.6020     5.4710     1.6560 c3         1 UNL       0.000000
    102 C97          9.8080     6.7610     1.2780 c3         1 UNL       0.000000
    103 C98          9.8090     7.0970    -0.2110 c3         1 UNL       0.000000
    104 C99          9.4880     8.4870    -0.7730 c3         1 UNL       0.000000
    105 C100         9.4270     9.7140     0.1260 c3         1 UNL       0.000000
    106 C101        10.7620    10.4510     0.2680 c3         1 UNL       0.000000
    107 C102        10.5430    11.9380     0.5280 c3         1 UNL       0.000000
    108 C103         8.4920     3.2460    -0.2320 ca         1 UNL       0.000000
    109 C104         8.1190     2.0020    -0.7160 cp         1 UNL       0.000000
    110 C105         6.8860     1.9240    -1.3680 ca         1 UNL       0.000000
    111 C106         5.8750     2.9190    -1.2210 ca         1 UNL       0.000000
    112 C107         4.5550     2.8380    -1.7340 ca         1 UNL       0.000000
    113 C108         4.0890     1.7000    -2.6050 c3         1 UNL       0.000000
    114 C109         3.6290     3.8820    -1.4910 ca         1 UNL       0.000000
    115 C110         3.9750     5.0200    -0.7230 ca         1 UNL       0.000000
    116 C111         5.2650     5.0770    -0.2060 ca         1 UNL       0.000000
    117 S2           5.4600     6.4900     0.7560 ss         1 UNL       0.000000
    118 C112         3.9910     7.1870     0.2100 cc         1 UNL       0.000000
    119 C113         3.8830     8.5950     0.3800 ce         1 UNL       0.000000
    120 C114         2.8000     9.3790     0.4500 cd         1 UNL       0.000000
    121 C115         2.7610    10.8700     0.3150 cd         1 UNL       0.000000
    122 C116         1.3240    11.2330     0.1080 ca         1 UNL       0.000000
    123 C117         0.6740    12.4290    -0.1750 ca         1 UNL       0.000000
    124 C118        -0.7230    12.4460    -0.3020 ca         1 UNL       0.000000
    125 C119        -1.4780    11.2780    -0.1410 ca         1 UNL       0.000000
    126 C120        -0.8440    10.0730     0.1450 ca         1 UNL       0.000000
    127 C121         0.5400    10.0790     0.2550 ca         1 UNL       0.000000
    128 C122         1.3790     8.9030     0.5150 c          1 UNL       0.000000
    129 O2           0.9520     7.7940     0.7580 o          1 UNL       0.000000
    130 C123         3.7970    11.7500     0.3680 ce         1 UNL       0.000000
    131 C124         3.6630    13.1400     0.0860 cg         1 UNL       0.000000
    132 N            3.5870    14.2690    -0.1720 n1         1 UNL       0.000000
    133 C125         5.1360    11.3870     0.6970 cg         1 UNL       0.000000
    134 N1           6.2290    11.1080     0.9670 n1         1 UNL       0.000000
    135 C126         3.2340     6.2280    -0.4350 cd         1 UNL       0.000000
    136 C127         6.2230     4.0610    -0.4790 ca         1 UNL       0.000000
    137 C128         7.5460     4.2440    -0.0510 ca         1 UNL       0.000000
    138 C129        23.2740     0.0240    -0.1260 cf         1 UNL       0.000000
    139 C130        24.5490    -0.4910     0.2440 ch         1 UNL       0.000000
    140 N2          25.5700    -0.9280     0.5810 n1         1 UNL       0.000000
    141 C131        22.2980    -0.9920    -0.3530 ch         1 UNL       0.000000
    142 N3          21.5090    -1.8250    -0.5260 n1         1 UNL       0.000000
    143 C132         4.1470   -10.7580    -0.2490 ce         1 UNL       0.000000
    144 C133         3.1160   -11.5040    -0.8850 cg         1 UNL       0.000000
    145 C134         3.8070    -9.3800    -0.1320 cg         1 UNL       0.000000
    146 N4           3.5020    -8.2680    -0.0560 n1         1 UNL       0.000000
    147 N5           2.2660   -12.0770    -1.4310 n1         1 UNL       0.000000
    148 H           19.5890     4.1480     0.7400 ha         1 UNL       0.000000
    149 H1          14.2930    -1.2570    -1.2090 hc         1 UNL       0.000000
    150 H2          13.4330    -2.6860    -0.7310 hc         1 UNL       0.000000
    151 H3          14.8760    -3.4320     0.7300 hc         1 UNL       0.000000
    152 H4          15.2880    -1.8920     1.4220 hc         1 UNL       0.000000
    153 H5          17.1240    -3.1630     0.5930 hc         1 UNL       0.000000
    154 H6          17.0650    -1.5930    -0.1430 hc         1 UNL       0.000000
    155 H7          16.4130    -2.4220    -2.2510 hc         1 UNL       0.000000
    156 H8          15.8690    -3.9770    -1.6160 hc         1 UNL       0.000000
    157 H9          18.7920    -3.0530    -1.4330 hc         1 UNL       0.000000
    158 H10         18.1590    -3.9020    -2.8340 hc         1 UNL       0.000000
    159 H11         18.2920    -5.9090    -1.8500 hc         1 UNL       0.000000
    160 H12         17.3550    -5.3960    -0.4570 hc         1 UNL       0.000000
    161 H13         19.4900    -4.3790     0.5160 hc         1 UNL       0.000000
    162 H14         20.3760    -5.0850    -0.8390 hc         1 UNL       0.000000
    163 H15         18.7450    -6.6090     1.2590 hc         1 UNL       0.000000
    164 H16         20.5060    -6.5810     1.1110 hc         1 UNL       0.000000
    165 H17         19.5280    -7.3730    -0.1380 hc         1 UNL       0.000000
    166 H18         11.9400    -1.0670     2.5050 hc         1 UNL       0.000000
    167 H19         13.6110    -1.4920     2.6290 hc         1 UNL       0.000000
    168 H20         12.0390    -3.4320     1.0040 hc         1 UNL       0.000000
    169 H21         11.3860    -3.2070     2.5960 hc         1 UNL       0.000000
    170 H22         12.9460    -4.5100     3.5600 hc         1 UNL       0.000000
    171 H23         14.2860    -3.6980     2.7850 hc         1 UNL       0.000000
    172 H24         13.5630    -5.0360     0.6210 hc         1 UNL       0.000000
    173 H25         12.5510    -5.9820     1.6930 hc         1 UNL       0.000000
    174 H26         14.5120    -6.8050     2.9130 hc         1 UNL       0.000000
    175 H27         15.5830    -5.6830     2.0670 hc         1 UNL       0.000000
    176 H28         15.2650    -6.7850    -0.0580 hc         1 UNL       0.000000
    177 H29         13.9420    -7.7750     0.5570 hc         1 UNL       0.000000
    178 H30         15.5060    -8.9920     2.0450 hc         1 UNL       0.000000
    179 H31         16.8460    -7.9770     1.5100 hc         1 UNL       0.000000
    180 H32         15.2060    -9.8100    -0.3250 hc         1 UNL       0.000000
    181 H33         16.8110   -10.1730     0.3290 hc         1 UNL       0.000000
    182 H34         16.6060    -8.8360    -0.8130 hc         1 UNL       0.000000
    183 H35         13.5530     5.2960     2.3180 hc         1 UNL       0.000000
    184 H36         15.0250     6.2440     2.3000 hc         1 UNL       0.000000
    185 H37         14.7660     5.0510     3.5910 hc         1 UNL       0.000000
    186 H38         12.9220    -4.8530    -2.5370 hc         1 UNL       0.000000
    187 H39         12.7640    -6.5540    -2.9260 hc         1 UNL       0.000000
    188 H40         13.5570    -6.0610    -1.4170 hc         1 UNL       0.000000
    189 H41          9.5780    -9.6130     0.0760 ha         1 UNL       0.000000
    190 H42          7.9890    -1.7160     1.7410 hc         1 UNL       0.000000
    191 H43          6.5660    -2.2970     0.9290 hc         1 UNL       0.000000
    192 H44          6.4950     0.5910     0.7650 hc         1 UNL       0.000000
    193 H45          7.0270     0.1440     2.3620 hc         1 UNL       0.000000
    194 H46          4.8440    -0.0140     2.8740 hc         1 UNL       0.000000
    195 H47          4.8800    -1.5750     2.0860 hc         1 UNL       0.000000
    196 H48          4.3710    -0.1500    -0.1090 hc         1 UNL       0.000000
    197 H49          3.9510     1.1340     1.0010 hc         1 UNL       0.000000
    198 H50          2.1340    -0.1560     1.9720 hc         1 UNL       0.000000
    199 H51          2.6820    -1.6290     1.2280 hc         1 UNL       0.000000
    200 H52          1.0330    -1.1840    -0.2730 hc         1 UNL       0.000000
    201 H53          2.3410    -0.3560    -1.0790 hc         1 UNL       0.000000
    202 H54          0.5180     1.1390    -1.1510 hc         1 UNL       0.000000
    203 H55          1.5240     1.7990     0.1380 hc         1 UNL       0.000000
    204 H56         -0.9270    -0.0190     0.5260 hc         1 UNL       0.000000
    205 H57         -0.9050     1.7360     0.7470 hc         1 UNL       0.000000
    206 H58          0.0250     0.6970     1.8380 hc         1 UNL       0.000000
    207 H59          7.5900    -0.9220    -2.4830 hc         1 UNL       0.000000
    208 H60          6.2430    -0.6390    -1.3850 hc         1 UNL       0.000000
    209 H61          6.8560    -3.5210    -2.1400 hc         1 UNL       0.000000
    210 H62          6.2470    -2.4070    -3.2910 hc         1 UNL       0.000000
    211 H63          4.2200    -2.6520    -2.6930 hc         1 UNL       0.000000
    212 H64          4.5020    -1.9490    -1.1370 hc         1 UNL       0.000000
    213 H65          5.1160    -4.9190    -1.4550 hc         1 UNL       0.000000
    214 H66          3.4510    -4.3850    -1.5950 hc         1 UNL       0.000000
    215 H67          3.9320    -3.0600     0.6320 hc         1 UNL       0.000000
    216 H68          5.2920    -4.1260     0.8020 hc         1 UNL       0.000000
    217 H69          3.2630    -4.7290     2.1030 hc         1 UNL       0.000000
    218 H70          3.9450    -6.0130     1.1400 hc         1 UNL       0.000000
    219 H71          1.5380    -6.1350     1.0700 hc         1 UNL       0.000000
    220 H72          2.1000    -5.7440    -0.5420 hc         1 UNL       0.000000
    221 H73          0.9630    -3.7280     1.4710 hc         1 UNL       0.000000
    222 H74          0.0910    -4.4400     0.1070 hc         1 UNL       0.000000
    223 H75          1.4590    -3.3680    -0.1990 hc         1 UNL       0.000000
    224 H76         10.1330     4.9270    -1.4190 hc         1 UNL       0.000000
    225 H77         10.3610     3.3800    -2.0910 hc         1 UNL       0.000000
    226 H78         12.5690     3.3700    -1.9250 hc         1 UNL       0.000000
    227 H79         12.5970     4.1130    -0.3430 hc         1 UNL       0.000000
    228 H80         11.8080     6.1120    -2.3460 hc         1 UNL       0.000000
    229 H81         13.3070     5.3190    -2.7890 hc         1 UNL       0.000000
    230 H82         14.3640     5.7990    -0.6670 hc         1 UNL       0.000000
    231 H83         12.8670     6.3630     0.0290 hc         1 UNL       0.000000
    232 H84         12.9020     8.2860    -1.6820 hc         1 UNL       0.000000
    233 H85         14.5780     7.8090    -1.9930 hc         1 UNL       0.000000
    234 H86         14.9940     7.9660     0.5440 hc         1 UNL       0.000000
    235 H87         13.3390     8.5260     0.7240 hc         1 UNL       0.000000
    236 H88         14.5230    10.5090     0.7730 hc         1 UNL       0.000000
    237 H89         13.9800    10.4680    -0.9010 hc         1 UNL       0.000000
    238 H90         16.7500     9.6450     0.1400 hc         1 UNL       0.000000
    239 H91         16.3610    11.1320    -0.7330 hc         1 UNL       0.000000
    240 H92         16.2560     9.5690    -1.5630 hc         1 UNL       0.000000
    241 H93         10.7010     3.3860     2.1250 hc         1 UNL       0.000000
    242 H94          9.1220     3.9600     2.0010 hc         1 UNL       0.000000
    243 H95         11.5960     5.5290     1.2290 hc         1 UNL       0.000000
    244 H96         10.7670     5.5680     2.7400 hc         1 UNL       0.000000
    245 H97         10.3030     7.5880     1.8030 hc         1 UNL       0.000000
    246 H98          8.7890     6.7170     1.6750 hc         1 UNL       0.000000
    247 H99          9.1000     6.4330    -0.7070 hc         1 UNL       0.000000
    248 H100        10.7940     6.8500    -0.5920 hc         1 UNL       0.000000
    249 H101         8.5150     8.4110    -1.2780 hc         1 UNL       0.000000
    250 H102        10.1940     8.6800    -1.5950 hc         1 UNL       0.000000
    251 H103         9.0070     9.4750     1.1080 hc         1 UNL       0.000000
    252 H104         8.7170    10.4040    -0.3500 hc         1 UNL       0.000000
    253 H105        11.3620    10.3550    -0.6440 hc         1 UNL       0.000000
    254 H106        11.3420    10.0150     1.0870 hc         1 UNL       0.000000
    255 H107        10.0420    12.4100    -0.3260 hc         1 UNL       0.000000
    256 H108        11.4990    12.4490     0.6740 hc         1 UNL       0.000000
    257 H109         9.9240    12.1000     1.4160 hc         1 UNL       0.000000
    258 H110         4.5590     0.7520    -2.3390 hc         1 UNL       0.000000
    259 H111         4.3010     1.9250    -3.6540 hc         1 UNL       0.000000
    260 H112         3.0100     1.5470    -2.4940 hc         1 UNL       0.000000
    261 H113         2.2430     6.4090    -0.8310 ha         1 UNL       0.000000
    262 H114        25.8700     1.6630     0.6660 ha         1 UNL       0.000000
    263 H115        27.0240     3.8050     0.6410 ha         1 UNL       0.000000
    264 H116        25.9020     5.8690    -0.1490 ha         1 UNL       0.000000
    265 H117        23.5250     5.7780    -0.9240 ha         1 UNL       0.000000
    266 H118        -1.4110     9.1550     0.2710 ha         1 UNL       0.000000
    267 H119        -2.5600    11.3160    -0.2440 ha         1 UNL       0.000000
    268 H120        -1.2260    13.3840    -0.5310 ha         1 UNL       0.000000
    269 H121         1.1880    13.3730    -0.3120 ha         1 UNL       0.000000
    270 H122         4.0970   -13.8060    -0.9570 ha         1 UNL       0.000000
    271 H123         5.3110   -15.8940    -1.1310 ha         1 UNL       0.000000
    272 H124         7.6470   -16.1040    -0.3290 ha         1 UNL       0.000000
    273 H125         8.8150   -14.1130     0.6370 ha         1 UNL       0.000000
    274 H126         7.4190    -4.1580    -0.0100 ha         1 UNL       0.000000
    275 H127        11.9330    -3.1910    -1.7030 ha         1 UNL       0.000000
    276 H128         6.6860     1.0860    -2.0090 ha         1 UNL       0.000000
    277 H129         7.8310     5.1580     0.4440 ha         1 UNL       0.000000
    278 H130        12.6210     3.4480     1.7050 ha         1 UNL       0.000000
    279 H131        15.6810    -0.0330     0.1720 ha         1 UNL       0.000000
    280 H132        17.1940     5.3080     1.8060 ha         1 UNL       0.000000
    281 H133        20.3920     0.4660     0.0220 ha         1 UNL       0.000000
    282 H134        11.6410    -8.0800    -1.1520 ha         1 UNL       0.000000
    283 H135         5.7700    -8.6740     1.0390 ha         1 UNL       0.000000
    284 H136         4.8580     9.0600     0.3410 ha         1 UNL       0.000000
    285 H137         2.6290     3.8270    -1.9170 ha         1 UNL       0.000000
@<TRIPOS>BOND
     1     1     2 2   
     2     2     3 1   
     3     3     4 ar  
     4     4     5 ar  
     5     5     6 ar  
     6     6     7 ar  
     7     7     8 ar  
     8     3     8 ar  
     9     4     9 1   
    10     9    10 1   
    11     2    10 1   
    12    10    11 2   
    13    11    12 1   
    14    12    13 1   
    15    12    14 2   
    16    14    15 1   
    17    15    16 ar  
    18    13    16 1   
    19    16    17 ar  
    20    17    18 ar  
    21    18    19 ar  
    22    19    20 1   
    23    20    21 1   
    24    21    22 1   
    25    22    23 1   
    26    23    24 1   
    27    24    25 1   
    28    25    26 1   
    29    26    27 1   
    30    27    28 1   
    31    20    29 1   
    32    29    30 1   
    33    30    31 1   
    34    31    32 1   
    35    32    33 1   
    36    33    34 1   
    37    34    35 1   
    38    35    36 1   
    39    19    37 ar  
    40    37    38 ar  
    41    38    39 ar  
    42    17    39 ar  
    43    39    40 ar  
    44    40    41 1   
    45    40    42 ar  
    46    15    42 ar  
    47    37    43 1   
    48    43    44 ar  
    49    20    44 1   
    50    44    45 ar  
    51    45    46 1   
    52    46    47 ar  
    53    47    48 ar  
    54    48    49 ar  
    55    49    50 1   
    56    49    51 ar  
    57    51    52 ar  
    58    52    53 ar  
    59    53    54 1   
    60    54    55 1   
    61    55    56 1   
    62    56    57 2   
    63    57    58 1   
    64    58    59 1   
    65    59    60 ar  
    66    60    61 ar  
    67    61    62 ar  
    68    62    63 ar  
    69    59    64 ar  
    70    63    64 ar  
    71    64    65 1   
    72    57    65 1   
    73    65    66 2   
    74    55    67 2   
    75    52    67 1   
    76    48    68 ar  
    77    53    68 ar  
    78    68    69 ar  
    79    46    70 ar  
    80    69    70 ar  
    81    70    71 1   
    82    71    72 1   
    83    72    73 1   
    84    73    74 1   
    85    74    75 1   
    86    75    76 1   
    87    76    77 1   
    88    77    78 1   
    89    78    79 1   
    90    71    80 1   
    91    80    81 1   
    92    81    82 1   
    93    82    83 1   
    94    83    84 1   
    95    84    85 1   
    96    85    86 1   
    97    86    87 1   
    98    45    88 ar  
    99    71    88 1   
   100    88    89 ar  
   101    89    90 ar  
   102    43    90 ar  
   103    90    91 1   
   104    91    92 1   
   105    92    93 1   
   106    93    94 1   
   107    94    95 1   
   108    95    96 1   
   109    96    97 1   
   110    97    98 1   
   111    98    99 1   
   112    91   100 1   
   113   100   101 1   
   114   101   102 1   
   115   102   103 1   
   116   103   104 1   
   117   104   105 1   
   118   105   106 1   
   119   106   107 1   
   120    91   108 1   
   121   108   109 ar  
   122    89   109 1   
   123   109   110 ar  
   124   110   111 ar  
   125   111   112 ar  
   126   112   113 1   
   127   112   114 ar  
   128   114   115 ar  
   129   115   116 ar  
   130   116   117 1   
   131   117   118 1   
   132   118   119 1   
   133   119   120 2   
   134   120   121 1   
   135   121   122 1   
   136   122   123 ar  
   137   123   124 ar  
   138   124   125 ar  
   139   125   126 ar  
   140   122   127 ar  
   141   126   127 ar  
   142   127   128 1   
   143   120   128 1   
   144   128   129 2   
   145   121   130 2   
   146   130   131 1   
   147   131   132 3   
   148   130   133 1   
   149   133   134 3   
   150   118   135 2   
   151   115   135 1   
   152   111   136 ar  
   153   116   136 ar  
   154   136   137 ar  
   155   108   137 ar  
   156     9   138 2   
   157   138   139 1   
   158   139   140 3   
   159   138   141 1   
   160   141   142 3   
   161    58   143 2   
   162   143   144 1   
   163   143   145 1   
   164   145   146 3   
   165   144   147 3   
   166    14   148 1   
   167    21   149 1   
   168    21   150 1   
   169    22   151 1   
   170    22   152 1   
   171    23   153 1   
   172    23   154 1   
   173    24   155 1   
   174    24   156 1   
   175    25   157 1   
   176    25   158 1   
   177    26   159 1   
   178    26   160 1   
   179    27   161 1   
   180    27   162 1   
   181    28   163 1   
   182    28   164 1   
   183    28   165 1   
   184    29   166 1   
   185    29   167 1   
   186    30   168 1   
   187    30   169 1   
   188    31   170 1   
   189    31   171 1   
   190    32   172 1   
   191    32   173 1   
   192    33   174 1   
   193    33   175 1   
   194    34   176 1   
   195    34   177 1   
   196    35   178 1   
   197    35   179 1   
   198    36   180 1   
   199    36   181 1   
   200    36   182 1   
   201    41   183 1   
   202    41   184 1   
   203    41   185 1   
   204    50   186 1   
   205    50   187 1   
   206    50   188 1   
   207    67   189 1   
   208    72   190 1   
   209    72   191 1   
   210    73   192 1   
   211    73   193 1   
   212    74   194 1   
   213    74   195 1   
   214    75   196 1   
   215    75   197 1   
   216    76   198 1   
   217    76   199 1   
   218    77   200 1   
   219    77   201 1   
   220    78   202 1   
   221    78   203 1   
   222    79   204 1   
   223    79   205 1   
   224    79   206 1   
   225    80   207 1   
   226    80   208 1   
   227    81   209 1   
   228    81   210 1   
   229    82   211 1   
   230    82   212 1   
   231    83   213 1   
   232    83   214 1   
   233    84   215 1   
   234    84   216 1   
   235    85   217 1   
   236    85   218 1   
   237    86   219 1   
   238    86   220 1   
   239    87   221 1   
   240    87   222 1   
   241    87   223 1   
   242    92   224 1   
   243    92   225 1   
   244    93   226 1   
   245    93   227 1   
   246    94   228 1   
   247    94   229 1   
   248    95   230 1   
   249    95   231 1   
   250    96   232 1   
   251    96   233 1   
   252    97   234 1   
   253    97   235 1   
   254    98   236 1   
   255    98   237 1   
   256    99   238 1   
   257    99   239 1   
   258    99   240 1   
   259   100   241 1   
   260   100   242 1   
   261   101   243 1   
   262   101   244 1   
   263   102   245 1   
   264   102   246 1   
   265   103   247 1   
   266   103   248 1   
   267   104   249 1   
   268   104   250 1   
   269   105   251 1   
   270   105   252 1   
   271   106   253 1   
   272   106   254 1   
   273   107   255 1   
   274   107   256 1   
   275   107   257 1   
   276   113   258 1   
   277   113   259 1   
   278   113   260 1   
   279   135   261 1   
   280     5   262 1   
   281     6   263 1   
   282     7   264 1   
   283     8   265 1   
   284   126   266 1   
   285   125   267 1   
   286   124   268 1   
   287   123   269 1   
   288    60   270 1   
   289    61   271 1   
   290    62   272 1   
   291    63   273 1   
   292    69   274 1   
   293    47   275 1   
   294   110   276 1   
   295   137   277 1   
   296    38   278 1   
   297    18   279 1   
   298    42   280 1   
   299    11   281 1   
   300    51   282 1   
   301    56   283 1   
   302   119   284 1   
   303   114   285 1   
@<TRIPOS>SUBSTRUCTURE
     1 UNL         1 TEMP              0 ****  ****    0 ROOT
