@<TRIPOS>MOLECULE
*****
  285   303     1     0     0
SMALL
dc


@<TRIPOS>ATOM
      1 O           21.2150     4.2540    -1.2260 o          1 UNL       0.000000
      2 C           21.9880     3.4370    -0.7740 c          1 UNL       0.000000
      3 C1          23.4060     3.6850    -0.4950 ca         1 UNL       0.000000
      4 C2          24.0540     2.4970    -0.1040 ca         1 UNL       0.000000
      5 C3          25.3800     2.5760     0.3020 ca         1 UNL       0.000000
      6 C4          26.0140     3.8240     0.2870 ca         1 UNL       0.000000
      7 C5          25.3460     4.9800    -0.1280 ca         1 UNL       0.000000
      8 C6          24.0210     4.9270    -0.5300 ca         1 UNL       0.000000
      9 C7          23.0750     1.3730    -0.1930 cc         1 UNL       0.000000
     10 C8          21.7450     2.0120    -0.3890 cc         1 UNL       0.000000
     11 C9          20.5550     1.4920    -0.0700 cf         1 UNL       0.000000
     12 C10         19.3010     2.1470     0.0350 cd         1 UNL       0.000000
     13 S           17.9360     1.2150    -0.3780 ss         1 UNL       0.000000
     14 C11         18.8960     3.3740     0.5280 cc         1 UNL       0.000000
     15 C12         17.4840     3.4250     0.8340 ca         1 UNL       0.000000
     16 C13         16.8600     2.2300     0.4990 ca         1 UNL       0.000000
     17 C14         15.5040     1.9810     0.8340 ca         1 UNL       0.000000
     18 C15         15.0100     0.6890     0.6510 ca         1 UNL       0.000000
     19 C16         13.6590     0.4130     0.7610 ca         1 UNL       0.000000
     20 C17         12.9530    -0.9430     0.5490 c3         1 UNL       0.000000
     21 C18         13.8940    -1.7910    -0.3810 c3         1 UNL       0.000000
     22 C19         15.0840    -2.4710     0.3670 c3         1 UNL       0.000000
     23 C20         16.4710    -2.5610    -0.2690 c3         1 UNL       0.000000
     24 C21         16.5420    -3.2620    -1.6190 c3         1 UNL       0.000000
     25 C22         17.9510    -3.8360    -1.8440 c3         1 UNL       0.000000
     26 C23         18.1630    -5.1550    -1.0820 c3         1 UNL       0.000000
     27 C24         19.4610    -5.1730    -0.2730 c3         1 UNL       0.000000
     28 C25         19.6040    -6.4750     0.5040 c3         1 UNL       0.000000
     29 C26         12.7240    -1.5990     1.9860 c3         1 UNL       0.000000
     30 C27         12.2760    -3.0800     2.0190 c3         1 UNL       0.000000
     31 C28         13.2770    -4.0990     2.6140 c3         1 UNL       0.000000
     32 C29         13.3730    -5.3610     1.7320 c3         1 UNL       0.000000
     33 C30         14.5740    -6.2630     2.0510 c3         1 UNL       0.000000
     34 C31         14.8060    -7.2810     0.9230 c3         1 UNL       0.000000
     35 C32         15.8410    -8.3460     1.2840 c3         1 UNL       0.000000
     36 C33         16.1110    -9.2810     0.1120 c3         1 UNL       0.000000
     37 C34         12.7640     1.4650     0.8930 cp         1 UNL       0.000000
     38 C35         13.2790     2.6690     1.3920 ca         1 UNL       0.000000
     39 C36         14.6790     2.9790     1.3570 ca         1 UNL       0.000000
     40 C37         15.3100     4.1960     1.7340 ca         1 UNL       0.000000
     41 C38         14.5920     5.2660     2.5130 c3         1 UNL       0.000000
     42 C39         16.6930     4.4040     1.4820 ca         1 UNL       0.000000
     43 C40         11.4690     1.0400     0.3660 cp         1 UNL       0.000000
     44 C41         11.5790    -0.3660     0.0340 ca         1 UNL       0.000000
     45 C42         10.4420    -1.0080    -0.4870 cp         1 UNL       0.000000
     46 C43         10.1830    -2.4130    -0.7140 cp         1 UNL       0.000000
     47 C44         10.9560    -3.4580    -1.2120 ca         1 UNL       0.000000
     48 C45         10.5810    -4.8170    -1.0250 ca         1 UNL       0.000000
     49 C46         11.3610    -5.9430    -1.3890 ca         1 UNL       0.000000
     50 C47         12.6680    -5.8390    -2.1340 c3         1 UNL       0.000000
     51 C48         10.9430    -7.2430    -1.0160 ca         1 UNL       0.000000
     52 C49          9.7250    -7.4680    -0.3310 ca         1 UNL       0.000000
     53 C50          8.9450    -6.3600    -0.0190 ca         1 UNL       0.000000
     54 S1           7.5450    -6.8410     0.8580 ss         1 UNL       0.000000
     55 C51          7.7940    -8.5140     0.5500 cc         1 UNL       0.000000
     56 C52          6.6350    -9.3370     0.7000 ce         1 UNL       0.000000
     57 C53          6.5200   -10.6530     0.4710 cd         1 UNL       0.000000
     58 C54          5.2970   -11.4040     0.0400 cd         1 UNL       0.000000
     59 C55          5.7160   -12.8320    -0.1280 ca         1 UNL       0.000000
     60 C56          5.0530   -13.9780    -0.5540 ca         1 UNL       0.000000
     61 C57          5.7560   -15.1840    -0.6300 ca         1 UNL       0.000000
     62 C58          7.1020   -15.2660    -0.2700 ca         1 UNL       0.000000
     63 C59          7.7860   -14.1400     0.1600 ca         1 UNL       0.000000
     64 C60          7.0770   -12.9470     0.2030 ca         1 UNL       0.000000
     65 C61          7.6330   -11.6500     0.5960 c          1 UNL       0.000000
     66 O1           8.7530   -11.5040     1.0380 o          1 UNL       0.000000
     67 C62          9.0720    -8.6980     0.0550 cd         1 UNL       0.000000
     68 C63          9.3430    -5.0450    -0.3840 ca         1 UNL       0.000000
     69 C64          8.4600    -3.9820    -0.1410 ca         1 UNL       0.000000
     70 C65          8.8590    -2.6840    -0.4030 ca         1 UNL       0.000000
     71 C66          8.0130    -1.4000    -0.3720 c3         1 UNL       0.000000
     72 C67          7.2620    -1.4020     0.9970 c3         1 UNL       0.000000
     73 C68          6.5020    -0.1510     1.4700 c3         1 UNL       0.000000
     74 C69          5.0580    -0.4250     1.9410 c3         1 UNL       0.000000
     75 C70          4.0270     0.0930     0.9270 c3         1 UNL       0.000000
     76 C71          2.6200    -0.4690     1.1540 c3         1 UNL       0.000000
     77 C72          1.7220    -0.3000    -0.0810 c3         1 UNL       0.000000
     78 C73          0.9230     1.0010    -0.0960 c3         1 UNL       0.000000
     79 C74         -0.2830     0.9370     0.8300 c3         1 UNL       0.000000
     80 C75          7.0610    -1.3720    -1.6090 c3         1 UNL       0.000000
     81 C76          6.3550    -2.6420    -2.1550 c3         1 UNL       0.000000
     82 C77          4.8680    -2.7740    -1.7920 c3         1 UNL       0.000000
     83 C78          4.4410    -4.1200    -1.1790 c3         1 UNL       0.000000
     84 C79          4.2860    -4.0290     0.3420 c3         1 UNL       0.000000
     85 C80          3.4760    -5.1400     1.0110 c3         1 UNL       0.000000
     86 C81          2.0680    -5.3920     0.4630 c3         1 UNL       0.000000
     87 C82          1.1710    -4.1660     0.4630 c3         1 UNL       0.000000
     88 C83          9.1760    -0.3500    -0.4750 ca         1 UNL       0.000000
     89 C84          9.1710     1.0480    -0.4560 cp         1 UNL       0.000000
     90 C85         10.3090     1.7660     0.0300 ca         1 UNL       0.000000
     91 C86         10.0140     3.3080     0.0420 c3         1 UNL       0.000000
     92 C87         10.6790     3.9610    -1.2360 c3         1 UNL       0.000000
     93 C88         12.1950     4.1800    -1.2670 c3         1 UNL       0.000000
     94 C89         12.6790     5.4880    -1.9390 c3         1 UNL       0.000000
     95 C90         13.5400     6.2880    -0.9470 c3         1 UNL       0.000000
     96 C91         13.8170     7.7470    -1.3100 c3         1 UNL       0.000000
     97 C92         14.2180     8.5060    -0.0320 c3         1 UNL       0.000000
     98 C93         14.6320     9.9570    -0.2630 c3         1 UNL       0.000000
     99 C94         16.0750    10.0780    -0.7230 c3         1 UNL       0.000000
    100 C95         10.0840     4.0090     1.4440 c3         1 UNL       0.000000
    101 C96         10.6240     5.4540     1.6280 c3         1 UNL       0.000000
    102 C97          9.8060     6.7310     1.2880 c3         1 UNL       0.000000
    103 C98          9.8870     7.1590    -0.1770 c3         1 UNL       0.000000
    104 C99          9.2490     8.4670    -0.6490 c3         1 UNL       0.000000
    105 C100         9.3390     9.7110     0.2220 c3         1 UNL       0.000000
    106 C101        10.7280    10.3450     0.2950 c3         1 UNL       0.000000
    107 C102        10.6190    11.8300     0.6270 c3         1 UNL       0.000000
    108 C103         8.5010     3.2610    -0.2850 ca         1 UNL       0.000000
    109 C104         8.1170     2.0100    -0.7440 cp         1 UNL       0.000000
    110 C105         6.8810     1.9320    -1.3900 ca         1 UNL       0.000000
    111 C106         5.8800     2.9430    -1.2640 ca         1 UNL       0.000000
    112 C107         4.5570     2.8590    -1.7670 ca         1 UNL       0.000000
    113 C108         4.0920     1.7070    -2.6200 c3         1 UNL       0.000000
    114 C109         3.6350     3.9090    -1.5380 ca         1 UNL       0.000000
    115 C110         3.9930     5.0690    -0.8100 ca         1 UNL       0.000000
    116 C111         5.2910     5.1410    -0.3140 ca         1 UNL       0.000000
    117 S2           5.5040     6.5950     0.5840 ss         1 UNL       0.000000
    118 C112         4.0110     7.2670     0.0610 cc         1 UNL       0.000000
    119 C113         3.8790     8.6760     0.2260 ce         1 UNL       0.000000
    120 C114         2.7830     9.4390     0.3440 cd         1 UNL       0.000000
    121 C115         2.7130    10.9350     0.2780 cd         1 UNL       0.000000
    122 C116         1.2690    11.2830     0.0880 ca         1 UNL       0.000000
    123 C117         0.5930    12.4780    -0.1390 ca         1 UNL       0.000000
    124 C118        -0.8030    12.4640    -0.2410 ca         1 UNL       0.000000
    125 C119        -1.5290    11.2770    -0.1220 ca         1 UNL       0.000000
    126 C120        -0.8790    10.0730     0.1000 ca         1 UNL       0.000000
    127 C121         0.5070    10.1060     0.1960 ca         1 UNL       0.000000
    128 C122         1.3700     8.9380     0.4110 c          1 UNL       0.000000
    129 O2           0.9580     7.8180     0.6230 o          1 UNL       0.000000
    130 C123         3.7280    11.8320     0.4090 ce         1 UNL       0.000000
    131 C124         3.5640    13.2350     0.2230 cg         1 UNL       0.000000
    132 N            3.4510    14.3760     0.0460 n1         1 UNL       0.000000
    133 C125         5.0630    11.4740     0.7540 cg         1 UNL       0.000000
    134 N1           6.1520    11.1960     1.0420 n1         1 UNL       0.000000
    135 C126         3.2530     6.2840    -0.5450 cd         1 UNL       0.000000
    136 C127         6.2420     4.1060    -0.5590 ca         1 UNL       0.000000
    137 C128         7.5700     4.2830    -0.1420 ca         1 UNL       0.000000
    138 C129        23.3660     0.0450    -0.1690 cf         1 UNL       0.000000
    139 C130        24.6730    -0.4570     0.0850 ch         1 UNL       0.000000
    140 N2          25.7300    -0.8730     0.3200 n1         1 UNL       0.000000
    141 C131        22.3950    -0.9730    -0.4070 ch         1 UNL       0.000000
    142 N3          21.6060    -1.8040    -0.5920 n1         1 UNL       0.000000
    143 C132         4.0780   -10.9040    -0.2960 ce         1 UNL       0.000000
    144 C133         3.0150   -11.6930    -0.8190 cg         1 UNL       0.000000
    145 C134         3.7320    -9.5230    -0.2300 cg         1 UNL       0.000000
    146 N4           3.4280    -8.4090    -0.1920 n1         1 UNL       0.000000
    147 N5           2.1410   -12.3140    -1.2660 n1         1 UNL       0.000000
    148 H           19.5820     4.1670     0.7990 ha         1 UNL       0.000000
    149 H1          14.2580    -1.1940    -1.2260 hc         1 UNL       0.000000
    150 H2          13.3530    -2.6130    -0.8230 hc         1 UNL       0.000000
    151 H3          14.8000    -3.5020     0.5610 hc         1 UNL       0.000000
    152 H4          15.2420    -2.0140     1.3480 hc         1 UNL       0.000000
    153 H5          17.1010    -3.0950     0.4560 hc         1 UNL       0.000000
    154 H6          16.9280    -1.5760    -0.3640 hc         1 UNL       0.000000
    155 H7          16.3180    -2.5310    -2.4030 hc         1 UNL       0.000000
    156 H8          15.7940    -4.0590    -1.6920 hc         1 UNL       0.000000
    157 H9          18.7050    -3.0890    -1.5640 hc         1 UNL       0.000000
    158 H10         18.0850    -4.0250    -2.9150 hc         1 UNL       0.000000
    159 H11         18.1830    -5.9780    -1.8080 hc         1 UNL       0.000000
    160 H12         17.3220    -5.3580    -0.4090 hc         1 UNL       0.000000
    161 H13         19.4730    -4.3360     0.4350 hc         1 UNL       0.000000
    162 H14         20.3220    -5.0510    -0.9390 hc         1 UNL       0.000000
    163 H15         18.7930    -6.5850     1.2300 hc         1 UNL       0.000000
    164 H16         20.5500    -6.4910     1.0540 hc         1 UNL       0.000000
    165 H17         19.5840    -7.3400    -0.1660 hc         1 UNL       0.000000
    166 H18         11.9510    -1.0210     2.5130 hc         1 UNL       0.000000
    167 H19         13.6170    -1.4740     2.6100 hc         1 UNL       0.000000
    168 H20         12.0130    -3.3950     1.0190 hc         1 UNL       0.000000
    169 H21         11.3500    -3.1470     2.6050 hc         1 UNL       0.000000
    170 H22         12.9440    -4.3940     3.6170 hc         1 UNL       0.000000
    171 H23         14.2660    -3.6520     2.7430 hc         1 UNL       0.000000
    172 H24         13.4440    -5.0620     0.6820 hc         1 UNL       0.000000
    173 H25         12.4470    -5.9410     1.8200 hc         1 UNL       0.000000
    174 H26         14.3990    -6.7810     3.0010 hc         1 UNL       0.000000
    175 H27         15.4810    -5.6590     2.1690 hc         1 UNL       0.000000
    176 H28         15.1450    -6.7450     0.0270 hc         1 UNL       0.000000
    177 H29         13.8600    -7.7720     0.6640 hc         1 UNL       0.000000
    178 H30         15.4830    -8.9350     2.1360 hc         1 UNL       0.000000
    179 H31         16.7810    -7.8730     1.5880 hc         1 UNL       0.000000
    180 H32         15.1900    -9.7650    -0.2280 hc         1 UNL       0.000000
    181 H33         16.8170   -10.0650     0.4030 hc         1 UNL       0.000000
    182 H34         16.5430    -8.7360    -0.7350 hc         1 UNL       0.000000
    183 H35         13.5390     5.3390     2.2470 hc         1 UNL       0.000000
    184 H36         15.0320     6.2510     2.3220 hc         1 UNL       0.000000
    185 H37         14.6720     5.0530     3.5840 hc         1 UNL       0.000000
    186 H38         12.7940    -4.8840    -2.6490 hc         1 UNL       0.000000
    187 H39         12.7210    -6.6130    -2.9080 hc         1 UNL       0.000000
    188 H40         13.5080    -5.9760    -1.4490 hc         1 UNL       0.000000
    189 H41          9.5020    -9.6620    -0.1790 ha         1 UNL       0.000000
    190 H42          7.9820    -1.6470     1.7930 hc         1 UNL       0.000000
    191 H43          6.5600    -2.2410     0.9850 hc         1 UNL       0.000000
    192 H44          6.4810     0.6170     0.7100 hc         1 UNL       0.000000
    193 H45          7.0580     0.2710     2.3160 hc         1 UNL       0.000000
    194 H46          4.8860     0.0900     2.8940 hc         1 UNL       0.000000
    195 H47          4.9080    -1.4920     2.1380 hc         1 UNL       0.000000
    196 H48          4.3640    -0.1640    -0.0780 hc         1 UNL       0.000000
    197 H49          3.9920     1.1880     0.9700 hc         1 UNL       0.000000
    198 H50          2.1730    -0.0130     2.0430 hc         1 UNL       0.000000
    199 H51          2.6870    -1.5380     1.3700 hc         1 UNL       0.000000
    200 H52          1.0190    -1.1400    -0.1310 hc         1 UNL       0.000000
    201 H53          2.3250    -0.3640    -0.9950 hc         1 UNL       0.000000
    202 H54          0.5610     1.1780    -1.1160 hc         1 UNL       0.000000
    203 H55          1.5610     1.8510     0.1700 hc         1 UNL       0.000000
    204 H56         -0.9400     0.1040     0.5560 hc         1 UNL       0.000000
    205 H57         -0.8660     1.8610     0.7600 hc         1 UNL       0.000000
    206 H58          0.0170     0.8040     1.8730 hc         1 UNL       0.000000
    207 H59          7.6300    -0.9650    -2.4570 hc         1 UNL       0.000000
    208 H60          6.2640    -0.6640    -1.3930 hc         1 UNL       0.000000
    209 H61          6.9010    -3.5670    -1.9890 hc         1 UNL       0.000000
    210 H62          6.3720    -2.5310    -3.2510 hc         1 UNL       0.000000
    211 H63          4.2990    -2.6560    -2.7250 hc         1 UNL       0.000000
    212 H64          4.5370    -1.9520    -1.1570 hc         1 UNL       0.000000
    213 H65          5.1310    -4.9260    -1.4470 hc         1 UNL       0.000000
    214 H66          3.4740    -4.3780    -1.6230 hc         1 UNL       0.000000
    215 H67          3.8240    -3.0770     0.6000 hc         1 UNL       0.000000
    216 H68          5.2780    -4.0180     0.8020 hc         1 UNL       0.000000
    217 H69          3.3890    -4.8940     2.0780 hc         1 UNL       0.000000
    218 H70          4.0500    -6.0710     0.9650 hc         1 UNL       0.000000
    219 H71          1.5930    -6.1670     1.0770 hc         1 UNL       0.000000
    220 H72          2.1230    -5.7960    -0.5530 hc         1 UNL       0.000000
    221 H73          1.0970    -3.7260     1.4620 hc         1 UNL       0.000000
    222 H74          0.1610    -4.4380     0.1380 hc         1 UNL       0.000000
    223 H75          1.5440    -3.4060    -0.2280 hc         1 UNL       0.000000
    224 H76         10.1810     4.8940    -1.4730 hc         1 UNL       0.000000
    225 H77         10.4430     3.3380    -2.1130 hc         1 UNL       0.000000
    226 H78         12.6670     3.3280    -1.7700 hc         1 UNL       0.000000
    227 H79         12.5610     4.1890    -0.2540 hc         1 UNL       0.000000
    228 H80         11.8360     6.0900    -2.2940 hc         1 UNL       0.000000
    229 H81         13.2850     5.2460    -2.8200 hc         1 UNL       0.000000
    230 H82         14.4920     5.7670    -0.7930 hc         1 UNL       0.000000
    231 H83         13.0400     6.2940     0.0220 hc         1 UNL       0.000000
    232 H84         12.9210     8.2140    -1.7350 hc         1 UNL       0.000000
    233 H85         14.6090     7.7980    -2.0630 hc         1 UNL       0.000000
    234 H86         15.0220     7.9700     0.4880 hc         1 UNL       0.000000
    235 H87         13.3570     8.5050     0.6500 hc         1 UNL       0.000000
    236 H88         14.5300    10.5030     0.6830 hc         1 UNL       0.000000
    237 H89         13.9620    10.4400    -0.9830 hc         1 UNL       0.000000
    238 H90         16.7560     9.6400     0.0160 hc         1 UNL       0.000000
    239 H91         16.3460    11.1310    -0.8430 hc         1 UNL       0.000000
    240 H92         16.2340     9.5720    -1.6790 hc         1 UNL       0.000000
    241 H93         10.6790     3.3690     2.1040 hc         1 UNL       0.000000
    242 H94          9.1110     3.9730     1.9560 hc         1 UNL       0.000000
    243 H95         11.6020     5.5290     1.1670 hc         1 UNL       0.000000
    244 H96         10.8220     5.5370     2.7070 hc         1 UNL       0.000000
    245 H97         10.2410     7.5450     1.8830 hc         1 UNL       0.000000
    246 H98          8.7710     6.6350     1.6280 hc         1 UNL       0.000000
    247 H99          9.3820     6.4060    -0.7740 hc         1 UNL       0.000000
    248 H100        10.9340     7.1730    -0.4770 hc         1 UNL       0.000000
    249 H101         8.1860     8.2740    -0.8400 hc         1 UNL       0.000000
    250 H102         9.6770     8.7000    -1.6350 hc         1 UNL       0.000000
    251 H103         8.9630     9.5050     1.2300 hc         1 UNL       0.000000
    252 H104         8.6520    10.4440    -0.2200 hc         1 UNL       0.000000
    253 H105        11.2580    10.2390    -0.6570 hc         1 UNL       0.000000
    254 H106        11.3260     9.8420     1.0620 hc         1 UNL       0.000000
    255 H107        10.1090    12.3680    -0.1800 hc         1 UNL       0.000000
    256 H108        11.6120    12.2740     0.7480 hc         1 UNL       0.000000
    257 H109        10.0530    11.9900     1.5500 hc         1 UNL       0.000000
    258 H110         4.4890     0.7510    -2.2710 hc         1 UNL       0.000000
    259 H111         4.4010     1.8690    -3.6580 hc         1 UNL       0.000000
    260 H112         3.0010     1.6140    -2.5950 hc         1 UNL       0.000000
    261 H113         2.2510     6.4430    -0.9230 ha         1 UNL       0.000000
    262 H114        25.9550     1.7310     0.6570 ha         1 UNL       0.000000
    263 H115        23.4860     5.8210    -0.8300 ha         1 UNL       0.000000
    264 H116        -1.4360     9.1470     0.1910 ha         1 UNL       0.000000
    265 H117         1.0760    13.4410    -0.2450 ha         1 UNL       0.000000
    266 H118         4.0130   -14.0070    -0.8490 ha         1 UNL       0.000000
    267 H119         8.8310   -14.1940     0.4430 ha         1 UNL       0.000000
    268 H120         7.4540    -4.1620     0.2180 ha         1 UNL       0.000000
    269 H121        11.8690    -3.2210    -1.7340 ha         1 UNL       0.000000
    270 H122         6.6620     1.0760    -2.0020 ha         1 UNL       0.000000
    271 H123         7.8700     5.2100     0.3170 ha         1 UNL       0.000000
    272 H124        12.6120     3.4500     1.7110 ha         1 UNL       0.000000
    273 H125        15.6960    -0.0880     0.3720 ha         1 UNL       0.000000
    274 H126        17.1680     5.3300     1.7990 ha         1 UNL       0.000000
    275 H127        20.4970     0.4570     0.2490 ha         1 UNL       0.000000
    276 H128        11.5620    -8.1010    -1.2750 ha         1 UNL       0.000000
    277 H129         5.7330    -8.7510     0.8190 ha         1 UNL       0.000000
    278 H130         4.8430     9.1640     0.1600 ha         1 UNL       0.000000
    279 H131         2.6290     3.8440    -1.9480 ha         1 UNL       0.000000
    280 F           25.9790     6.1600    -0.1150 f          1 UNL       0.000000
    281 F1          27.2870     3.9030     0.6980 f          1 UNL       0.000000
    282 F2           7.7450   -16.4380    -0.3460 f          1 UNL       0.000000
    283 F3           5.1140   -16.2760    -1.0650 f          1 UNL       0.000000
    284 F4          -2.8640    11.2970    -0.2260 f          1 UNL       0.000000
    285 F5          -1.4450    13.6200    -0.4570 f          1 UNL       0.000000
@<TRIPOS>BOND
     1     1     2 2   
     2     2     3 1   
     3     3     4 ar  
     4     4     5 ar  
     5     5     6 ar  
     6     6     7 ar  
     7     7     8 ar  
     8     3     8 ar  
     9     4     9 1   
    10     9    10 1   
    11     2    10 1   
    12    10    11 2   
    13    11    12 1   
    14    12    13 1   
    15    12    14 2   
    16    14    15 1   
    17    15    16 ar  
    18    13    16 1   
    19    16    17 ar  
    20    17    18 ar  
    21    18    19 ar  
    22    19    20 1   
    23    20    21 1   
    24    21    22 1   
    25    22    23 1   
    26    23    24 1   
    27    24    25 1   
    28    25    26 1   
    29    26    27 1   
    30    27    28 1   
    31    20    29 1   
    32    29    30 1   
    33    30    31 1   
    34    31    32 1   
    35    32    33 1   
    36    33    34 1   
    37    34    35 1   
    38    35    36 1   
    39    19    37 ar  
    40    37    38 ar  
    41    38    39 ar  
    42    17    39 ar  
    43    39    40 ar  
    44    40    41 1   
    45    40    42 ar  
    46    15    42 ar  
    47    37    43 1   
    48    43    44 ar  
    49    20    44 1   
    50    44    45 ar  
    51    45    46 1   
    52    46    47 ar  
    53    47    48 ar  
    54    48    49 ar  
    55    49    50 1   
    56    49    51 ar  
    57    51    52 ar  
    58    52    53 ar  
    59    53    54 1   
    60    54    55 1   
    61    55    56 1   
    62    56    57 2   
    63    57    58 1   
    64    58    59 1   
    65    59    60 ar  
    66    60    61 ar  
    67    61    62 ar  
    68    62    63 ar  
    69    59    64 ar  
    70    63    64 ar  
    71    64    65 1   
    72    57    65 1   
    73    65    66 2   
    74    55    67 2   
    75    52    67 1   
    76    48    68 ar  
    77    53    68 ar  
    78    68    69 ar  
    79    46    70 ar  
    80    69    70 ar  
    81    70    71 1   
    82    71    72 1   
    83    72    73 1   
    84    73    74 1   
    85    74    75 1   
    86    75    76 1   
    87    76    77 1   
    88    77    78 1   
    89    78    79 1   
    90    71    80 1   
    91    80    81 1   
    92    81    82 1   
    93    82    83 1   
    94    83    84 1   
    95    84    85 1   
    96    85    86 1   
    97    86    87 1   
    98    45    88 ar  
    99    71    88 1   
   100    88    89 ar  
   101    89    90 ar  
   102    43    90 ar  
   103    90    91 1   
   104    91    92 1   
   105    92    93 1   
   106    93    94 1   
   107    94    95 1   
   108    95    96 1   
   109    96    97 1   
   110    97    98 1   
   111    98    99 1   
   112    91   100 1   
   113   100   101 1   
   114   101   102 1   
   115   102   103 1   
   116   103   104 1   
   117   104   105 1   
   118   105   106 1   
   119   106   107 1   
   120    91   108 1   
   121   108   109 ar  
   122    89   109 1   
   123   109   110 ar  
   124   110   111 ar  
   125   111   112 ar  
   126   112   113 1   
   127   112   114 ar  
   128   114   115 ar  
   129   115   116 ar  
   130   116   117 1   
   131   117   118 1   
   132   118   119 1   
   133   119   120 2   
   134   120   121 1   
   135   121   122 1   
   136   122   123 ar  
   137   123   124 ar  
   138   124   125 ar  
   139   125   126 ar  
   140   122   127 ar  
   141   126   127 ar  
   142   127   128 1   
   143   120   128 1   
   144   128   129 2   
   145   121   130 2   
   146   130   131 1   
   147   131   132 3   
   148   130   133 1   
   149   133   134 3   
   150   118   135 2   
   151   115   135 1   
   152   111   136 ar  
   153   116   136 ar  
   154   136   137 ar  
   155   108   137 ar  
   156     9   138 2   
   157   138   139 1   
   158   139   140 3   
   159   138   141 1   
   160   141   142 3   
   161    58   143 2   
   162   143   144 1   
   163   143   145 1   
   164   145   146 3   
   165   144   147 3   
   166    14   148 1   
   167    21   149 1   
   168    21   150 1   
   169    22   151 1   
   170    22   152 1   
   171    23   153 1   
   172    23   154 1   
   173    24   155 1   
   174    24   156 1   
   175    25   157 1   
   176    25   158 1   
   177    26   159 1   
   178    26   160 1   
   179    27   161 1   
   180    27   162 1   
   181    28   163 1   
   182    28   164 1   
   183    28   165 1   
   184    29   166 1   
   185    29   167 1   
   186    30   168 1   
   187    30   169 1   
   188    31   170 1   
   189    31   171 1   
   190    32   172 1   
   191    32   173 1   
   192    33   174 1   
   193    33   175 1   
   194    34   176 1   
   195    34   177 1   
   196    35   178 1   
   197    35   179 1   
   198    36   180 1   
   199    36   181 1   
   200    36   182 1   
   201    41   183 1   
   202    41   184 1   
   203    41   185 1   
   204    50   186 1   
   205    50   187 1   
   206    50   188 1   
   207    67   189 1   
   208    72   190 1   
   209    72   191 1   
   210    73   192 1   
   211    73   193 1   
   212    74   194 1   
   213    74   195 1   
   214    75   196 1   
   215    75   197 1   
   216    76   198 1   
   217    76   199 1   
   218    77   200 1   
   219    77   201 1   
   220    78   202 1   
   221    78   203 1   
   222    79   204 1   
   223    79   205 1   
   224    79   206 1   
   225    80   207 1   
   226    80   208 1   
   227    81   209 1   
   228    81   210 1   
   229    82   211 1   
   230    82   212 1   
   231    83   213 1   
   232    83   214 1   
   233    84   215 1   
   234    84   216 1   
   235    85   217 1   
   236    85   218 1   
   237    86   219 1   
   238    86   220 1   
   239    87   221 1   
   240    87   222 1   
   241    87   223 1   
   242    92   224 1   
   243    92   225 1   
   244    93   226 1   
   245    93   227 1   
   246    94   228 1   
   247    94   229 1   
   248    95   230 1   
   249    95   231 1   
   250    96   232 1   
   251    96   233 1   
   252    97   234 1   
   253    97   235 1   
   254    98   236 1   
   255    98   237 1   
   256    99   238 1   
   257    99   239 1   
   258    99   240 1   
   259   100   241 1   
   260   100   242 1   
   261   101   243 1   
   262   101   244 1   
   263   102   245 1   
   264   102   246 1   
   265   103   247 1   
   266   103   248 1   
   267   104   249 1   
   268   104   250 1   
   269   105   251 1   
   270   105   252 1   
   271   106   253 1   
   272   106   254 1   
   273   107   255 1   
   274   107   256 1   
   275   107   257 1   
   276   113   258 1   
   277   113   259 1   
   278   113   260 1   
   279   135   261 1   
   280     5   262 1   
   281     8   263 1   
   282   126   264 1   
   283   123   265 1   
   284    60   266 1   
   285    63   267 1   
   286    69   268 1   
   287    47   269 1   
   288   110   270 1   
   289   137   271 1   
   290    38   272 1   
   291    18   273 1   
   292    42   274 1   
   293    11   275 1   
   294    51   276 1   
   295    56   277 1   
   296   119   278 1   
   297   114   279 1   
   298     7   280 1   
   299     6   281 1   
   300    62   282 1   
   301    61   283 1   
   302   125   284 1   
   303   124   285 1   
@<TRIPOS>SUBSTRUCTURE
     1 UNL         1 TEMP              0 ****  ****    0 ROOT
