@<TRIPOS>MOLECULE
*****
  244   258     1     0     0
SMALL
dc


@<TRIPOS>ATOM
      1 C            6.2960    -1.7660    -0.2630 ca         1 UNL       0.000000
      2 C1           7.4000    -1.1080    -0.8300 ca         1 UNL       0.000000
      3 C2           8.6700    -1.7100    -0.8310 ca         1 UNL       0.000000
      4 H            7.2640    -0.1210    -1.2510 ha         1 UNL       0.000000
      5 C3           8.8020    -2.9820    -0.2510 ca         1 UNL       0.000000
      6 H1           9.5200    -1.1780    -1.2510 ha         1 UNL       0.000000
      7 C4           7.7020    -3.6360     0.3150 ca         1 UNL       0.000000
      8 C5           6.4320    -3.0370     0.3050 ca         1 UNL       0.000000
      9 H2           5.5610    -3.4950     0.7540 ha         1 UNL       0.000000
     10 H3           5.3300    -1.2810    -0.2460 ha         1 UNL       0.000000
     11 C6           8.1350    -4.9390     0.8730 cc         1 UNL       0.000000
     12 C7           9.6420    -4.9200     0.8150 cc         1 UNL       0.000000
     13 C8          10.0140    -3.8010    -0.0720 c          1 UNL       0.000000
     14 O           11.1530    -3.4540    -0.3510 o          1 UNL       0.000000
     15 C9           7.3380    -6.0370     1.1260 cf         1 UNL       0.000000
     16 C10          5.8980    -6.0540     0.9090 ch         1 UNL       0.000000
     17 C11          7.8780    -7.3390     1.4270 ch         1 UNL       0.000000
     18 N            4.7530    -6.0240     0.7250 n1         1 UNL       0.000000
     19 N1           8.2450    -8.4090     1.6680 n1         1 UNL       0.000000
     20 C12         10.4630    -5.7670     1.4710 cf         1 UNL       0.000000
     21 C13         11.7200    -6.3090     0.9470 cd         1 UNL       0.000000
     22 H4          10.0700    -6.3760     2.2520 ha         1 UNL       0.000000
     23 S           13.2830    -5.9360     1.3090 ss         1 UNL       0.000000
     24 C14         11.7290    -7.5140     0.2630 cc         1 UNL       0.000000
     25 C15         17.3590    -6.5940     2.0820 cc         1 UNL       0.000000
     26 S1          16.2010    -8.7440     1.4770 ss         1 UNL       0.000000
     27 C16         17.3920    -7.9250     2.3150 cd         1 UNL       0.000000
     28 C17         18.1320    -5.7750     3.1460 c3         1 UNL       0.000000
     29 C18         18.8400    -7.0460     3.7790 ca         1 UNL       0.000000
     30 C19         18.4080    -8.2550     3.2370 ca         1 UNL       0.000000
     31 C20         19.1910    -4.6390     3.1210 ca         1 UNL       0.000000
     32 C21         16.8370    -4.9390     3.5160 ca         1 UNL       0.000000
     33 C22         16.6350    -3.7700     2.7110 ca         1 UNL       0.000000
     34 C23         15.4870    -3.0100     2.7390 ca         1 UNL       0.000000
     35 C24         14.4270    -3.3730     3.5540 ca         1 UNL       0.000000
     36 C25         14.5790    -4.5040     4.3920 ca         1 UNL       0.000000
     37 C26         19.8370    -4.0840     2.0020 ca         1 UNL       0.000000
     38 C27         20.5050    -2.8340     2.1340 ca         1 UNL       0.000000
     39 C28         20.5420    -2.1300     3.3700 ca         1 UNL       0.000000
     40 C29         19.9730    -2.7530     4.4810 ca         1 UNL       0.000000
     41 C30         19.3290    -3.9760     4.3610 ca         1 UNL       0.000000
     42 C31         15.7770    -5.2830     4.3830 ca         1 UNL       0.000000
     43 H5          19.7530    -4.5480     1.0270 ha         1 UNL       0.000000
     44 H6          13.7560    -4.7960     5.0260 ha         1 UNL       0.000000
     45 H7          15.8350    -6.1710     4.9930 ha         1 UNL       0.000000
     46 H8          15.4110    -2.1600     2.0700 ha         1 UNL       0.000000
     47 H9          17.3620    -3.4650     1.9720 ha         1 UNL       0.000000
     48 H10         20.9300    -2.3770     1.2530 ha         1 UNL       0.000000
     49 H11         19.9580    -2.2750     5.4450 ha         1 UNL       0.000000
     50 H12         18.8360    -4.3810     5.2370 ha         1 UNL       0.000000
     51 C32         13.1320    -2.5850     3.3860 c3         1 UNL       0.000000
     52 C33         13.0750    -1.2790     4.1940 c3         1 UNL       0.000000
     53 H13         12.2430    -3.2110     3.6040 hc         1 UNL       0.000000
     54 H14         13.0400    -2.3440     2.3010 hc         1 UNL       0.000000
     55 C34         12.4140    -0.0760     3.4760 c3         1 UNL       0.000000
     56 H15         14.1030    -0.9580     4.4580 hc         1 UNL       0.000000
     57 H16         12.5440    -1.4840     5.1490 hc         1 UNL       0.000000
     58 C35         10.9820    -0.3080     2.9560 c3         1 UNL       0.000000
     59 H17         13.0490     0.2510     2.6220 hc         1 UNL       0.000000
     60 H18         12.4070     0.7600     4.2070 hc         1 UNL       0.000000
     61 C36         10.2730     1.0390     2.7070 c3         1 UNL       0.000000
     62 H19         11.0230    -0.9020     2.0190 hc         1 UNL       0.000000
     63 H20         10.3930    -0.8770     3.7050 hc         1 UNL       0.000000
     64 C37          8.8910     0.8640     2.0750 c3         1 UNL       0.000000
     65 H21         10.8850     1.6890     2.0460 hc         1 UNL       0.000000
     66 H22         10.1540     1.5620     3.6820 hc         1 UNL       0.000000
     67 H23          8.9910     0.4940     1.0360 hc         1 UNL       0.000000
     68 H24          8.3610     1.8400     2.0430 hc         1 UNL       0.000000
     69 H25          8.2710     0.1510     2.6560 hc         1 UNL       0.000000
     70 C38         21.0470    -0.6730     3.4560 c3         1 UNL       0.000000
     71 C39         21.6800    -0.2030     4.7990 c3         1 UNL       0.000000
     72 H26         20.1800    -0.0130     3.2410 hc         1 UNL       0.000000
     73 H27         21.7790    -0.4980     2.6410 hc         1 UNL       0.000000
     74 C40         22.1500     1.2850     4.8030 c3         1 UNL       0.000000
     75 H28         22.5650    -0.8410     4.9700 hc         1 UNL       0.000000
     76 H29         20.9920    -0.3450     5.6570 hc         1 UNL       0.000000
     77 C41         21.0530     2.2900     5.2290 c3         1 UNL       0.000000
     78 H30         22.5610     1.5550     3.8080 hc         1 UNL       0.000000
     79 H31         22.9790     1.3840     5.5350 hc         1 UNL       0.000000
     80 C42         21.4870     3.7730     5.1410 c3         1 UNL       0.000000
     81 H32         20.7310     2.0750     6.2730 hc         1 UNL       0.000000
     82 H33         20.1710     2.1560     4.5740 hc         1 UNL       0.000000
     83 C43         22.5590     4.1840     6.1600 c3         1 UNL       0.000000
     84 H34         20.5950     4.4110     5.3260 hc         1 UNL       0.000000
     85 H35         21.8450     4.0000     4.1160 hc         1 UNL       0.000000
     86 H36         22.2090     4.0010     7.1970 hc         1 UNL       0.000000
     87 H37         22.7730     5.2710     6.0640 hc         1 UNL       0.000000
     88 H38         23.5060     3.6370     5.9940 hc         1 UNL       0.000000
     89 C44         20.0960    -7.0690     4.3990 ca         1 UNL       0.000000
     90 C45         20.8440    -8.2470     4.2830 ca         1 UNL       0.000000
     91 C46         20.4280    -9.4830     3.8220 ca         1 UNL       0.000000
     92 C47         19.0860    -9.4980     3.3380 ca         1 UNL       0.000000
     93 H39         20.6000    -6.1640     4.6790 ha         1 UNL       0.000000
     94 H40         18.7030   -10.3390     2.7920 ha         1 UNL       0.000000
     95 C48         22.2110    -8.2540     4.2610 cd         1 UNL       0.000000
     96 C49         21.6530   -10.4430     3.3840 c3         1 UNL       0.000000
     97 C50         22.7010    -9.3120     3.5830 cc         1 UNL       0.000000
     98 S2          23.3130    -7.2510     4.9670 ss         1 UNL       0.000000
     99 C51         24.5490    -8.2930     4.5150 cd         1 UNL       0.000000
    100 C52         24.0990    -9.3020     3.6450 cc         1 UNL       0.000000
    101 C53         22.6240   -11.5690     3.9810 ca         1 UNL       0.000000
    102 C54         21.0140   -11.1640     2.1810 ca         1 UNL       0.000000
    103 C55         20.7230   -10.6180     0.9150 ca         1 UNL       0.000000
    104 C56         19.9590   -11.3740    -0.0110 ca         1 UNL       0.000000
    105 C57         19.4990   -12.6710     0.3130 ca         1 UNL       0.000000
    106 C58         19.8190   -13.2040     1.5560 ca         1 UNL       0.000000
    107 C59         20.5300   -12.4640     2.4680 ca         1 UNL       0.000000
    108 C60         23.5000   -12.1660     3.0190 ca         1 UNL       0.000000
    109 C61         24.5130   -13.0640     3.3460 ca         1 UNL       0.000000
    110 C62         24.7270   -13.4460     4.6650 ca         1 UNL       0.000000
    111 C63         23.8520   -12.9100     5.6490 ca         1 UNL       0.000000
    112 C64         22.8160   -11.9780     5.3210 ca         1 UNL       0.000000
    113 C65         25.9740   -14.2800     5.0260 c3         1 UNL       0.000000
    114 C66         26.3020   -15.5930     4.2410 c3         1 UNL       0.000000
    115 H41         25.9680   -14.5200     6.1090 hc         1 UNL       0.000000
    116 H42         26.8330   -13.5940     4.8670 hc         1 UNL       0.000000
    117 C67         27.7790   -16.0320     4.4990 c3         1 UNL       0.000000
    118 H43         26.1860   -15.4500     3.1470 hc         1 UNL       0.000000
    119 H44         25.6040   -16.3900     4.5640 hc         1 UNL       0.000000
    120 C68         28.1420   -17.4610     4.0200 c3         1 UNL       0.000000
    121 H45         27.9860   -15.9860     5.5870 hc         1 UNL       0.000000
    122 H46         28.4590   -15.3070     3.9980 hc         1 UNL       0.000000
    123 C69         29.6280   -17.7800     4.3180 c3         1 UNL       0.000000
    124 H47         27.9560   -17.5710     2.9310 hc         1 UNL       0.000000
    125 H48         27.5020   -18.1930     4.5570 hc         1 UNL       0.000000
    126 C70         30.0090   -19.2350     4.0130 c3         1 UNL       0.000000
    127 H49         29.8440   -17.5920     5.3910 hc         1 UNL       0.000000
    128 H50         30.2790   -17.1090     3.7180 hc         1 UNL       0.000000
    129 H51         29.4120   -19.9370     4.6330 hc         1 UNL       0.000000
    130 H52         31.0820   -19.4040     4.2520 hc         1 UNL       0.000000
    131 H53         29.8530   -19.4770     2.9430 hc         1 UNL       0.000000
    132 C71         18.6570   -13.5340    -0.6060 c3         1 UNL       0.000000
    133 C72         17.1340   -13.4180    -0.3490 c3         1 UNL       0.000000
    134 H54         18.9710   -14.5880    -0.4370 hc         1 UNL       0.000000
    135 H55         18.8760   -13.3310    -1.6730 hc         1 UNL       0.000000
    136 C73         16.4060   -14.7380    -0.6900 c3         1 UNL       0.000000
    137 H56         16.7440   -12.5790    -0.9620 hc         1 UNL       0.000000
    138 H57         16.9220   -13.1880     0.7170 hc         1 UNL       0.000000
    139 C74         14.8800   -14.5840    -0.8220 c3         1 UNL       0.000000
    140 H58         16.6350   -15.4820     0.1060 hc         1 UNL       0.000000
    141 H59         16.7890   -15.1410    -1.6510 hc         1 UNL       0.000000
    142 C75         14.2270   -15.9560    -1.0810 c3         1 UNL       0.000000
    143 H60         14.6700   -13.9030    -1.6750 hc         1 UNL       0.000000
    144 H61         14.4460   -14.1320     0.0950 hc         1 UNL       0.000000
    145 C76         12.7520   -15.8330    -1.4450 c3         1 UNL       0.000000
    146 H62         14.3230   -16.5870    -0.1730 hc         1 UNL       0.000000
    147 H63         14.7420   -16.4700    -1.9180 hc         1 UNL       0.000000
    148 H64         12.1970   -15.3510    -0.6180 hc         1 UNL       0.000000
    149 H65         12.3060   -16.8340    -1.6200 hc         1 UNL       0.000000
    150 H66         12.6400   -15.2450    -2.3820 hc         1 UNL       0.000000
    151 H67         21.0310    -9.6110     0.6660 ha         1 UNL       0.000000
    152 H68         19.6990   -10.9440    -0.9650 ha         1 UNL       0.000000
    153 H69         19.4960   -14.1970     1.8400 ha         1 UNL       0.000000
    154 H70         20.6910   -12.9210     3.4360 ha         1 UNL       0.000000
    155 H71         22.2240   -11.5480     6.1160 ha         1 UNL       0.000000
    156 H72         23.4350   -11.8720     1.9800 ha         1 UNL       0.000000
    157 H73         25.1590   -13.4230     2.5570 ha         1 UNL       0.000000
    158 H74         24.0180   -13.1670     6.6850 ha         1 UNL       0.000000
    159 C77         16.3200    -6.2690     1.1790 cc         1 UNL       0.000000
    160 C78         15.5040    -7.3630     0.8570 cd         1 UNL       0.000000
    161 H75         16.0060    -5.2930     0.9300 ha         1 UNL       0.000000
    162 C79         12.9990    -8.0370    -0.0010 cc         1 UNL       0.000000
    163 H76         10.8350    -8.0530    -0.0490 ha         1 UNL       0.000000
    164 C80         14.0440    -7.2490     0.5780 cd         1 UNL       0.000000
    165 O1          13.0780    -9.1460    -0.7850 os         1 UNL       0.000000
    166 C81         12.3030    -9.1620    -1.9700 c3         1 UNL       0.000000
    167 C82         11.2950   -10.3500    -2.1960 c3         1 UNL       0.000000
    168 H77         13.0470    -9.1670    -2.7880 h1         1 UNL       0.000000
    169 H78         11.7690    -8.1990    -2.1560 h1         1 UNL       0.000000
    170 C83         11.4730   -11.5940    -1.3060 c3         1 UNL       0.000000
    171 C84         10.6510   -12.8000    -1.8210 c3         1 UNL       0.000000
    172 H79         11.1860   -11.3730    -0.2590 hc         1 UNL       0.000000
    173 H80         12.5470   -11.8710    -1.3220 hc         1 UNL       0.000000
    174 H81          9.6420   -12.8320    -1.3580 hc         1 UNL       0.000000
    175 H82         11.1340   -13.7420    -1.5620 hc         1 UNL       0.000000
    176 H83         10.5270   -12.7880    -2.9260 hc         1 UNL       0.000000
    177 C85          9.7860   -10.0840    -2.5870 c3         1 UNL       0.000000
    178 H84         11.6820   -10.7380    -3.1730 hc         1 UNL       0.000000
    179 C86          9.0360    -8.7730    -2.3200 c3         1 UNL       0.000000
    180 H85          9.6870   -10.3150    -3.6720 hc         1 UNL       0.000000
    181 H86          9.1450   -10.8400    -2.0920 hc         1 UNL       0.000000
    182 C87          7.6780    -8.8570    -3.0700 c3         1 UNL       0.000000
    183 H87          9.5980    -7.8970    -2.6970 hc         1 UNL       0.000000
    184 H88          8.8660    -8.6620    -1.2300 hc         1 UNL       0.000000
    185 C88          6.7010    -7.7370    -2.7320 c3         1 UNL       0.000000
    186 H89          7.8730    -8.8440    -4.1660 hc         1 UNL       0.000000
    187 H90          7.1720    -9.8200    -2.8400 hc         1 UNL       0.000000
    188 H91          7.1380    -6.7440    -2.9480 hc         1 UNL       0.000000
    189 H92          6.4060    -7.7920    -1.6640 hc         1 UNL       0.000000
    190 H93          5.7790    -7.8570    -3.3440 hc         1 UNL       0.000000
    191 H94         24.7280   -10.0990     3.3000 ha         1 UNL       0.000000
    192 N2          31.9440    -6.6280    10.6240 n1         1 UNL       0.000000
    193 N3          28.0640    -7.9020     9.8160 n1         1 UNL       0.000000
    194 C89         31.3650    -7.3470     9.9250 cg         1 UNL       0.000000
    195 C90         29.1570    -8.0880     9.4500 cg         1 UNL       0.000000
    196 C91         30.5520    -8.2100     9.0990 ce         1 UNL       0.000000
    197 H95         33.6330    -8.4000     9.6440 ha         1 UNL       0.000000
    198 C92         33.6520    -9.1240     8.8460 ca         1 UNL       0.000000
    199 C93         31.0640    -9.0920     8.1870 cd         1 UNL       0.000000
    200 H96         35.7670    -9.4050     9.1240 ha         1 UNL       0.000000
    201 C94         29.1210   -10.0050     6.5910 cf         1 UNL       0.000000
    202 C95         34.8960    -9.7100     8.5620 ca         1 UNL       0.000000
    203 C96         32.5160    -9.5180     8.1030 ca         1 UNL       0.000000
    204 H97         28.6880    -4.7470     6.4350 hc         1 UNL       0.000000
    205 H98         24.7370    -2.0430     7.9380 hc         1 UNL       0.000000
    206 C97         30.3380    -9.9660     7.1940 cc         1 UNL       0.000000
    207 H99         24.3010    -4.4070     7.2450 hc         1 UNL       0.000000
    208 S3          26.7100    -9.9100     5.2480 ss         1 UNL       0.000000
    209 C98         25.8350    -8.3650     5.2430 cd         1 UNL       0.000000
    210 C99         27.9020    -9.1880     6.3890 cd         1 UNL       0.000000
    211 O2          25.9670    -6.2050     6.2890 os         1 UNL       0.000000
    212 H100        31.0820    -4.6170     7.2460 hc         1 UNL       0.000000
    213 C100        26.4110    -7.4580     6.0580 cc         1 UNL       0.000000
    214 C101        28.4860    -3.7090     6.7670 c3         1 UNL       0.000000
    215 H101        29.1780    -4.0900     8.7940 hc         1 UNL       0.000000
    216 C102        35.0260   -10.6810     7.5590 ca         1 UNL       0.000000
    217 C103        24.1920    -2.2610     7.0000 c3         1 UNL       0.000000
    218 C104        32.6610   -10.5420     7.1710 ca         1 UNL       0.000000
    219 H102        26.7810    -4.2630     7.9960 hc         1 UNL       0.000000
    220 C105        24.5330    -3.6540     6.4640 c3         1 UNL       0.000000
    221 C106        27.6590    -7.9090     6.7240 cc         1 UNL       0.000000
    222 C107        30.8830    -3.5750     7.5720 c3         1 UNL       0.000000
    223 C108        31.3660   -10.8960     6.6460 c          1 UNL       0.000000
    224 C109        27.0040    -3.5620     7.1650 c3         1 UNL       0.000000
    225 H103        31.5330    -3.3530     8.4440 hc         1 UNL       0.000000
    226 C110        33.9000   -11.1180     6.8550 ca         1 UNL       0.000000
    227 C111        29.4120    -3.4030     7.9540 c3         1 UNL       0.000000
    228 H104        28.7170    -3.0180     5.9280 hc         1 UNL       0.000000
    229 H105        35.9990   -11.1060     7.3480 ha         1 UNL       0.000000
    230 C112        26.0010    -3.8090     6.0000 c3         1 UNL       0.000000
    231 H106        23.1070    -2.2030     7.2270 hc         1 UNL       0.000000
    232 C113        26.1730    -5.2060     5.3620 c3         1 UNL       0.000000
    233 H107        24.4380    -1.4820     6.2510 hc         1 UNL       0.000000
    234 H108        23.8670    -3.8560     5.5970 hc         1 UNL       0.000000
    235 O3          31.1880   -11.7430     5.7770 o          1 UNL       0.000000
    236 H109        29.2470    -2.3610     8.3020 hc         1 UNL       0.000000
    237 H110        31.1570    -2.8840     6.7480 hc         1 UNL       0.000000
    238 H111        25.4670    -5.3450     4.5210 h1         1 UNL       0.000000
    239 H112        33.9990   -11.8910     6.0940 ha         1 UNL       0.000000
    240 H113        26.8700    -2.5290     7.5450 hc         1 UNL       0.000000
    241 H114        27.1940    -5.2930     4.9300 h1         1 UNL       0.000000
    242 H115        26.1970    -3.0520     5.2080 hc         1 UNL       0.000000
    243 H116        28.9980   -10.8860     5.9930 ha         1 UNL       0.000000
    244 H117        28.0730    -7.4280     7.7150 ha         1 UNL       0.000000
@<TRIPOS>BOND
     1     1     2 ar  
     2     2     3 ar  
     3     2     4 1   
     4     3     5 ar  
     5     3     6 1   
     6     5     7 ar  
     7     7     8 ar  
     8     8     1 ar  
     9     8     9 1   
    10     1    10 1   
    11     7    11 1   
    12    11    12 1   
    13    12    13 1   
    14    13     5 1   
    15    13    14 2   
    16    11    15 2   
    17    15    16 1   
    18    15    17 1   
    19    18    16 3   
    20    19    17 3   
    21    12    20 2   
    22    20    21 1   
    23    20    22 1   
    24    21    23 1   
    25    21    24 2   
    26    26    27 1   
    27    25    27 2   
    28    25    28 1   
    29    28    29 1   
    30    27    30 1   
    31    29    30 ar  
    32    28    31 1   
    33    28    32 1   
    34    32    33 ar  
    35    33    34 ar  
    36    34    35 ar  
    37    35    36 ar  
    38    31    37 ar  
    39    37    38 ar  
    40    38    39 ar  
    41    39    40 ar  
    42    40    41 ar  
    43    41    31 ar  
    44    36    42 ar  
    45    42    32 ar  
    46    37    43 1   
    47    36    44 1   
    48    42    45 1   
    49    34    46 1   
    50    33    47 1   
    51    38    48 1   
    52    40    49 1   
    53    41    50 1   
    54    35    51 1   
    55    51    52 1   
    56    51    53 1   
    57    51    54 1   
    58    52    55 1   
    59    52    56 1   
    60    52    57 1   
    61    55    58 1   
    62    55    59 1   
    63    55    60 1   
    64    58    61 1   
    65    58    62 1   
    66    58    63 1   
    67    61    64 1   
    68    61    65 1   
    69    61    66 1   
    70    64    67 1   
    71    64    68 1   
    72    64    69 1   
    73    39    70 1   
    74    70    71 1   
    75    70    72 1   
    76    70    73 1   
    77    71    74 1   
    78    71    75 1   
    79    71    76 1   
    80    74    77 1   
    81    74    78 1   
    82    74    79 1   
    83    77    80 1   
    84    77    81 1   
    85    77    82 1   
    86    80    83 1   
    87    80    84 1   
    88    80    85 1   
    89    83    86 1   
    90    83    87 1   
    91    83    88 1   
    92    29    89 ar  
    93    89    90 ar  
    94    90    91 ar  
    95    91    92 ar  
    96    92    30 ar  
    97    89    93 1   
    98    92    94 1   
    99    90    95 1   
   100    91    96 1   
   101    96    97 1   
   102    97    95 2   
   103    95    98 1   
   104    98    99 1   
   105    99   100 2   
   106    97   100 1   
   107    96   101 1   
   108    96   102 1   
   109   102   103 ar  
   110   103   104 ar  
   111   104   105 ar  
   112   105   106 ar  
   113   106   107 ar  
   114   107   102 ar  
   115   101   108 ar  
   116   108   109 ar  
   117   109   110 ar  
   118   110   111 ar  
   119   111   112 ar  
   120   112   101 ar  
   121   110   113 1   
   122   113   114 1   
   123   113   115 1   
   124   113   116 1   
   125   114   117 1   
   126   114   118 1   
   127   114   119 1   
   128   117   120 1   
   129   117   121 1   
   130   117   122 1   
   131   120   123 1   
   132   120   124 1   
   133   120   125 1   
   134   123   126 1   
   135   123   127 1   
   136   123   128 1   
   137   126   129 1   
   138   126   130 1   
   139   126   131 1   
   140   105   132 1   
   141   132   133 1   
   142   132   134 1   
   143   132   135 1   
   144   133   136 1   
   145   133   137 1   
   146   133   138 1   
   147   136   139 1   
   148   136   140 1   
   149   136   141 1   
   150   139   142 1   
   151   139   143 1   
   152   139   144 1   
   153   142   145 1   
   154   142   146 1   
   155   142   147 1   
   156   145   148 1   
   157   145   149 1   
   158   145   150 1   
   159   103   151 1   
   160   104   152 1   
   161   106   153 1   
   162   107   154 1   
   163   112   155 1   
   164   108   156 1   
   165   109   157 1   
   166   111   158 1   
   167    25   159 1   
   168   159   160 2   
   169   159   161 1   
   170   160    26 1   
   171    24   162 1   
   172    24   163 1   
   173   162   164 2   
   174   164    23 1   
   175   162   165 1   
   176   165   166 1   
   177   166   167 1   
   178   166   168 1   
   179   166   169 1   
   180   167   170 1   
   181   170   171 1   
   182   170   172 1   
   183   170   173 1   
   184   171   174 1   
   185   171   175 1   
   186   171   176 1   
   187   167   177 1   
   188   167   178 1   
   189   177   179 1   
   190   177   180 1   
   191   177   181 1   
   192   179   182 1   
   193   179   183 1   
   194   179   184 1   
   195   182   185 1   
   196   182   186 1   
   197   182   187 1   
   198   185   188 1   
   199   185   189 1   
   200   185   190 1   
   201   100   191 1   
   202   237   222 1   
   203   225   222 1   
   204   240   224 1   
   205   236   227 1   
   206   222   227 1   
   207   222   212 1   
   208   227   215 1   
   209   227   214 1   
   210   233   217 1   
   211   242   230 1   
   212   231   217 1   
   213   224   219 1   
   214   224   230 1   
   215   224   214 1   
   216   217   220 1   
   217   217   205 1   
   218   230   220 1   
   219   230   232 1   
   220   241   232 1   
   221   214   228 1   
   222   214   204 1   
   223   234   220 1   
   224   220   207 1   
   225   238   232 1   
   226   232   211 1   
   227   239   226 1   
   228   229   216 1   
   229   226   216 ar  
   230   226   218 ar  
   231   216   202 ar  
   232   235   223 2   
   233   221   213 1   
   234   221   210 2   
   235   218   223 1   
   236   218   203 ar  
   237   211   213 1   
   238   202   200 1   
   239   202   198 ar  
   240   223   206 1   
   241   192   194 3   
   242   203   198 ar  
   243   203   199 1   
   244   213   209 2   
   245   198   197 1   
   246   194   196 1   
   247   206   199 1   
   248   206   201 2   
   249   199   196 2   
   250   196   195 1   
   251   210   201 1   
   252   210   208 1   
   253   195   193 3   
   254   209   208 1   
   255   164   160 1   
   256    99   209 1   
   257   201   243 1   
   258   244   221 1   
@<TRIPOS>SUBSTRUCTURE
     1 UNL         1 TEMP              0 ****  ****    0 ROOT
