@<TRIPOS>MOLECULE
*****
   88   120     1     0     0
SMALL
dc


@<TRIPOS>ATOM
      1 C           -1.8340     3.4430     0.7430 ca         1 UNL       0.000000
      2 C1          -0.7320     3.3760     1.5920 ca         1 UNL       0.000000
      3 C2          -1.0340     2.4790     2.6140 ca         1 UNL       0.000000
      4 C3          -2.3240     1.9970     2.3950 ca         1 UNL       0.000000
      5 C4          -2.8100     2.5850     1.2360 ca         1 UNL       0.000000
      6 C5          -1.6530     3.5560    -0.6360 ca         1 UNL       0.000000
      7 C6          -2.4620     2.8280    -1.5060 ca         1 UNL       0.000000
      8 C7          -3.4980     2.0160    -1.0180 ca         1 UNL       0.000000
      9 C8          -3.6270     1.8590     0.3600 ca         1 UNL       0.000000
     10 C9          -2.6310     0.6610     2.6590 ca         1 UNL       0.000000
     11 C10         -0.0430     1.6220     3.1080 ca         1 UNL       0.000000
     12 C11          0.5620     3.4220     1.0580 ca         1 UNL       0.000000
     13 C12         -0.3680     3.6080    -1.1670 ca         1 UNL       0.000000
     14 C13          1.5500     2.5710     1.5520 ca         1 UNL       0.000000
     15 C14          0.7440     3.5410    -0.3180 ca         1 UNL       0.000000
     16 C15         -0.3490     0.2900     3.3790 ca         1 UNL       0.000000
     17 C16         -1.6450    -0.1900     3.1490 ca         1 UNL       0.000000
     18 C17         -4.0220     0.5560     0.6580 ca         1 UNL       0.000000
     19 C18         -3.4370    -0.0570     1.7750 ca         1 UNL       0.000000
     20 C19          1.2460     1.6690     2.5790 ca         1 UNL       0.000000
     21 C20         -1.6730     2.4240    -2.5820 ca         1 UNL       0.000000
     22 C21         -0.3780     2.9060    -2.3690 ca         1 UNL       0.000000
     23 C22          1.7380     0.3650     2.5290 ca         1 UNL       0.000000
     24 C23          0.7520    -0.4860     3.0250 ca         1 UNL       0.000000
     25 C24         -1.8320    -1.4330     2.5560 ca         1 UNL       0.000000
     26 C25         -2.9210    -1.3450     1.6890 ca         1 UNL       0.000000
     27 C26          2.3430     2.1660     0.4800 ca         1 UNL       0.000000
     28 C27          1.8460     2.7660    -0.6750 ca         1 UNL       0.000000
     29 C28         -4.3070    -0.2060    -0.6340 cx         1 UNL       0.000000
     30 C29         -3.9810     0.7910    -1.7860 ca         1 UNL       0.000000
     31 C30          0.7350     2.1350    -2.7290 ca         1 UNL       0.000000
     32 C31         -1.8550     1.1640    -3.1630 ca         1 UNL       0.000000
     33 C32         -2.8700     0.3160    -2.7230 ca         1 UNL       0.000000
     34 C33          1.8410     2.0620    -1.8850 ca         1 UNL       0.000000
     35 C34          2.8390     0.8570     0.4320 ca         1 UNL       0.000000
     36 C35          2.5370    -0.0410     1.4540 ca         1 UNL       0.000000
     37 C36          0.5620    -1.7480     2.4480 ca         1 UNL       0.000000
     38 C37         -0.7290    -2.2210     2.2200 ca         1 UNL       0.000000
     39 C38         -2.9470    -2.0570     0.4800 ca         1 UNL       0.000000
     40 C39         -3.6590    -1.4990    -0.6730 cx         1 UNL       0.000000
     41 C40         -2.3240    -0.9630    -2.6740 ca         1 UNL       0.000000
     42 C41         -2.6560    -1.8710    -1.6630 ca         1 UNL       0.000000
     43 C42         -1.8360    -2.8280     0.1630 ca         1 UNL       0.000000
     44 C43         -0.7320    -2.9180     1.0190 ca         1 UNL       0.000000
     45 C44          1.3600    -2.1540     1.3810 ca         1 UNL       0.000000
     46 C45          2.3500    -1.2980     0.8810 ca         1 UNL       0.000000
     47 C46          2.8380     0.1560    -0.7720 ca         1 UNL       0.000000
     48 C47          2.3390     0.7600    -1.9330 ca         1 UNL       0.000000
     49 C48          0.5510     0.8790    -3.2990 ca         1 UNL       0.000000
     50 C49         -0.7450     0.3970    -3.5050 ca         1 UNL       0.000000
     51 C50          1.7360    -1.9120    -1.3770 ca         1 UNL       0.000000
     52 C51          0.7500    -2.7620    -0.8790 ca         1 UNL       0.000000
     53 C52         -0.3560    -2.6800    -1.7220 ca         1 UNL       0.000000
     54 C53         -0.0510    -1.7860    -2.7390 ca         1 UNL       0.000000
     55 C54          1.2410    -1.3100    -2.5310 ca         1 UNL       0.000000
     56 C55          0.5610    -2.8820     0.5010 ca         1 UNL       0.000000
     57 C56         -1.6520    -2.7100    -1.1910 ca         1 UNL       0.000000
     58 C57         -1.0420    -0.9260    -3.2110 ca         1 UNL       0.000000
     59 C58          1.5420     0.0300    -2.8100 ca         1 UNL       0.000000
     60 C59          2.5360    -1.1760    -0.4940 ca         1 UNL       0.000000
     61 C60         -5.2430    -1.3350    -0.7170 cx         1 UNL       0.000000
     62 C61         -6.0550    -1.6940     0.4950 ca         1 UNL       0.000000
     63 C62         -6.1770    -1.6100    -1.9200 c3         1 UNL       0.000000
     64 C63         -5.6070    -1.5370    -3.3650 c3         1 UNL       0.000000
     65 C64         -6.6660    -1.9080    -4.4300 c3         1 UNL       0.000000
     66 C65         -6.1920    -1.6540    -5.8520 c          1 UNL       0.000000
     67 C66         -6.9110    -1.6250    -8.1560 c3         1 UNL       0.000000
     68 C67         -6.8890    -0.7470     1.0970 ca         1 UNL       0.000000
     69 C68         -7.5980    -1.0620     2.2550 ca         1 UNL       0.000000
     70 C69         -7.4860    -2.3300     2.8180 ca         1 UNL       0.000000
     71 C70         -6.6720    -3.2870     2.2160 ca         1 UNL       0.000000
     72 C71         -5.9630    -2.9710     1.0570 ca         1 UNL       0.000000
     73 O           -5.0860    -1.2320    -6.1380 o          1 UNL       0.000000
     74 O1          -7.1740    -1.8810    -6.7530 os         1 UNL       0.000000
     75 H           -7.0480    -0.9540    -1.8530 hc         1 UNL       0.000000
     76 H1          -6.5560    -2.6300    -1.8030 hc         1 UNL       0.000000
     77 H2          -4.7470    -2.2010    -3.4710 hc         1 UNL       0.000000
     78 H3          -5.2850    -0.5290    -3.6000 hc         1 UNL       0.000000
     79 H4          -7.5720    -1.3190    -4.2640 hc         1 UNL       0.000000
     80 H5          -6.9440    -2.9600    -4.3310 hc         1 UNL       0.000000
     81 H6          -7.7990    -1.8840    -8.7380 h1         1 UNL       0.000000
     82 H7          -6.0660    -2.2360    -8.4880 h1         1 UNL       0.000000
     83 H8          -6.6780    -0.5660    -8.2970 h1         1 UNL       0.000000
     84 H9          -6.9760     0.2500     0.6720 ha         1 UNL       0.000000
     85 H10         -8.2330    -0.3140     2.7240 ha         1 UNL       0.000000
     86 H11         -8.0320    -2.5730     3.7270 ha         1 UNL       0.000000
     87 H12         -6.5850    -4.2780     2.6540 ha         1 UNL       0.000000
     88 H13         -5.3240    -3.7240     0.6010 ha         1 UNL       0.000000
@<TRIPOS>BOND
     1     1     2 ar  
     2     2     3 ar  
     3     3     4 ar  
     4     4     5 ar  
     5     5     1 ar  
     6     6     7 ar  
     7     8     9 ar  
     8     9     5 ar  
     9     8     7 ar  
    10     1     6 ar  
    11     4    10 ar  
    12     3    11 ar  
    13     2    12 ar  
    14     6    13 ar  
    15    12    14 ar  
    16    12    15 ar  
    17    11    16 ar  
    18    10    17 ar  
    19     9    18 ar  
    20    10    19 ar  
    21    18    19 ar  
    22    17    16 ar  
    23    14    20 ar  
    24    11    20 ar  
    25     7    21 ar  
    26    21    22 ar  
    27    13    22 ar  
    28    20    23 ar  
    29    16    24 ar  
    30    24    23 ar  
    31    17    25 ar  
    32    25    26 ar  
    33    19    26 ar  
    34    14    27 ar  
    35    27    28 ar  
    36    28    15 ar  
    37    18    29 1   
    38    30     8 ar  
    39    15    13 ar  
    40    22    31 ar  
    41    21    32 ar  
    42    30    33 ar  
    43    30    29 1   
    44    31    34 ar  
    45    34    28 ar  
    46    27    35 ar  
    47    36    23 ar  
    48    24    37 ar  
    49    25    38 ar  
    50    26    39 ar  
    51    29    40 1   
    52    33    32 ar  
    53    39    40 1   
    54    38    37 ar  
    55    36    35 ar  
    56    33    41 ar  
    57    40    42 1   
    58    39    43 ar  
    59    38    44 ar  
    60    37    45 ar  
    61    36    46 ar  
    62    35    47 ar  
    63    34    48 ar  
    64    31    49 ar  
    65    32    50 ar  
    66    50    49 ar  
    67    47    48 ar  
    68    45    46 ar  
    69    43    44 ar  
    70    42    41 ar  
    71    51    52 ar  
    72    52    53 ar  
    73    53    54 ar  
    74    54    55 ar  
    75    55    51 ar  
    76    44    56 ar  
    77    45    56 ar  
    78    43    57 ar  
    79    42    57 ar  
    80    41    58 ar  
    81    58    50 ar  
    82    49    59 ar  
    83    48    59 ar  
    84    47    60 ar  
    85    60    46 ar  
    86    53    57 ar  
    87    54    58 ar  
    88    56    52 ar  
    89    51    60 ar  
    90    55    59 ar  
    91    40    61 1   
    92    29    61 1   
    93    61    62 1   
    94    61    63 1   
    95    63    64 1   
    96    65    64 1   
    97    65    66 1   
    98    62    68 ar  
    99    69    70 ar  
   100    71    72 ar  
   101    71    70 ar  
   102    69    68 ar  
   103    72    62 ar  
   104    73    66 2   
   105    66    74 1   
   106    74    67 1   
   107    63    75 1   
   108    63    76 1   
   109    64    77 1   
   110    64    78 1   
   111    65    79 1   
   112    65    80 1   
   113    67    81 1   
   114    67    82 1   
   115    67    83 1   
   116    68    84 1   
   117    69    85 1   
   118    70    86 1   
   119    71    87 1   
   120    72    88 1   
@<TRIPOS>SUBSTRUCTURE
     1 UNL         1 TEMP              0 ****  ****    0 ROOT
